/opt/crc/a/ansys/2024R1/v241/fluent/fluent24.1.0/bin/fluent -r24.1.0 3ddp -t1 -g
/opt/crc/a/ansys/2024R1/v241/fluent/fluent24.1.0/cortex/lnamd64/cortex.24.1.0 -f fluent -g (fluent "3ddp -pshmem  -host -r24.1.0 -t1 -mpi=intel -path/opt/crc/a/ansys/2024R1/v241/fluent -ssh")

Opening input/output transcript to file "/tmp/1066403.1.long/worker-241760-2306056/task.25/fluent-20250107-002828-2307327.trn".
Auto-Transcript Start Time:  00:28:28, 07 Jan 2025 
/opt/crc/a/ansys/2024R1/v241/fluent/fluent24.1.0/bin/fluent -r24.1.0 3ddp -pshmem -host -t1 -mpi=intel -path/opt/crc/a/ansys/2024R1/v241/fluent -ssh -cx d32cepyc199.crc.nd.edu:39935:34539
Starting /opt/crc/a/ansys/2024R1/v241/fluent/fluent24.1.0/lnamd64/3ddp_host/fluent.24.1.0 host -cx d32cepyc199.crc.nd.edu:39935:34539 "(list (rpsetvar (QUOTE parallel/function) "fluent 3ddp -flux -node -r24.1.0 -t1 -pshmem -mpi=intel -ssh") (rpsetvar (QUOTE parallel/rhost) "") (rpsetvar (QUOTE parallel/ruser) "") (rpsetvar (QUOTE parallel/nprocs_string) "1") (rpsetvar (QUOTE parallel/auto-spawn?) #t) (rpsetvar (QUOTE parallel/trace-level) 0) (rpsetvar (QUOTE parallel/remote-shell) 1) (rpsetvar (QUOTE parallel/path) "/opt/crc/a/ansys/2024R1/v241/fluent") (rpsetvar (QUOTE parallel/hostsfile) "") (rpsetvar (QUOTE gpuapp/devices) ""))"

              Welcome to ANSYS Fluent 2024 R1

              Copyright 1987-2024 ANSYS, Inc. All Rights Reserved.
              Unauthorized use, distribution or duplication is prohibited.
              This product is subject to U.S. laws governing export and re-export.
              For full Legal Notice, see documentation.

Build Time: Nov 22 2023 10:07:25 EST  Build Id: 10184  
 
Connected License Server List:	7504@linux5-lic.crc.nd.edu

*********************************************
Info: Your license enables 4-way parallel execution.
For faster simulations, please start the application with the appropriate parallel options.
*********************************************


     --------------------------------------------------------------
     This is an academic version of ANSYS FLUENT. Usage of this product
     license is limited to the terms and conditions specified in your ANSYS
     license form, additional terms section.
     --------------------------------------------------------------
Host spawning Node 0 on machine "d32cepyc199.crc.nd.edu" (unix).
/opt/crc/a/ansys/2024R1/v241/fluent/fluent24.1.0/bin/fluent -r24.1.0 3ddp -flux -node -t1 -pshmem -mpi=intel -ssh -mport 10.32.91.165:10.32.91.165:45805:0
Starting /opt/crc/a/ansys/2024R1/v241/fluent/fluent24.1.0/multiport/mpi/lnamd64/intel2021/bin/mpirun --rsh=ssh -f /tmp/fluent-appfile.etracey.2314627 -genv I_MPI_FABRICS shm -genv FLUENT_ARCH lnamd64 -genv I_MPI_DEBUG 0 -genv I_MPI_ADJUST_GATHERV 3 -genv I_MPI_ADJUST_ALLREDUCE 2 -genv I_MPI_PLATFORM auto -genv PYTHONHOME /opt/crc/a/ansys/2024R1/v241/fluent/fluent24.1.0/../../commonfiles/CPython/3_10/linx64/Release/python -genv FLUENT_PROD_DIR /opt/crc/a/ansys/2024R1/v241/fluent/fluent24.1.0 -genv FLUENT_AFFINITY 0 -genv I_MPI_PIN enable -genv KMP_AFFINITY disabled -n 1 /opt/crc/a/ansys/2024R1/v241/fluent/fluent24.1.0/lnamd64/3ddp_node/fluent_mpi.24.1.0 node -mpiw intel -pic shmem -mport 10.32.91.165:10.32.91.165:45805:0

-------------------------------------------------------------------------------
ID    Hostname              Core  O.S.      PID      Vendor                
-------------------------------------------------------------------------------
n0    d32cepyc199.crc.nd.e  1/64  Linux-64  2315146  AMD EPYC 7543 32-Core 
host  d32cepyc199.crc.nd.e        Linux-64  2311705  AMD EPYC 7543 32-Core 

MPI Option Selected: intel
-------------------------------------------------------------------------------


Initializing SGE
Done.
Cleanup script file is /tmp/1066403.1.long/worker-241760-2306056/task.25/cleanup-fluent-d32cepyc199.crc.nd.edu-2311705.sh
Key Behavioral Changes:
Fluent Guided Meshing Workflows: 
Workflow template files (.wft) are now saved by default whenever the mesh is saved. You can change the automatic creation of .wft files in Preferences. 
Journaling: 
When Ansys Fluent encounters an invalid input in a journal file that is being replayed, it now raises an error condition and aborts the journal processing. 
Turbulence: 
The value of kappa used in the Spalart-Allmaras model for interior terms was inconsistent with the reference publications of the model. Fluent historically used a value of 0.4187, but to produce results consistent with the published model, the value should be 0.41. This issue was first addressed in a previous Fluent version and access to the kappa value was given in the GUI while keeping the old default of 0.4187. In Fluent 2024 R1, the default value is now changed to 0.41. 
Turbomachinery: 
For Blade Film Cooling, you can now specify stationary holes on the surfaces of a moving/rotating cell zone in transient cases. 
Boundaries previously referred to as "casings" in the Turbo Topology definition are now referred to as "shrouds." 
Density-Based Solver: 
The High Speed Numerics have been updated to increase the robustness of the Roe-FDS numerical flux against shock-instabilities and the carbuncle phenomenon. This modification may produce a slight solution change for cases combining Roe-FDS and HSN. 
Multiphase Models: 
Modeling of open channel flows in conjunction with the translation moving reference frame (MRF) has been improved resulting in more accurate and stable solution. In addition, a solution methodology has been suggested to provide better stability for high-speed hull simulations. 
Parallel Processing: 
Using dynamic process spawning now requires that you manually specify the interconnect as -pethernet for shared memory or distributed memory without InfiniBand, and -pib.ofed for distributed memory over InfiniBand. 
Refer to the Ansys, Inc. Release Notes for a full listing of the new features included in Ansys Fluent 2024 R1. 
> Fast-loading "/opt/crc/a/ansys/2024R1/v241/fluent/fluent24.1.0/addons/afd/lib/hdfio.bin"
Done.
WARNING: Rank:0 Machine d32cepyc199.crc.nd.edu has 27 % of RAM filled with file buffer caches.
This can cause potential performance issues. Please use -cflush flag to flush the cache. 


Reading from d32cepyc199.crc.nd.edu:"/tmp/1066403.1.long/worker-241760-2306056/task.25/case.cas.h5" in NODE0 mode ...
  Reading mesh ...
      392494 cells,     1 cell zone  ...
         392494 polyhedra cells,  zone id: 988
     2220333 faces,     5 face zones ...
             73 polygonal pressure-far-field faces,  zone id: 17
             75 polygonal pressure-far-field faces,  zone id: 18
           2146 polygonal pressure-far-field faces,  zone id: 19
          50210 polygonal wall faces,  zone id: 20
        2167829 polygonal interior faces,  zone id: 987
     1589162 nodes,     1 node zone  ...
  Done.


Building...
     mesh
  Reading boundary layer flags ...
  Done.

     materials,
     interface,
     domains,
	mixture
     zones,
	inlet
	outlet
	farfield
	launchvehicle
	interior--solid
	solid
     parallel,
Done.
Warning: Pressure far-field boundary condition can only be used with ideal gas law.
  Please change either the boundary condition type or enable ideal gas law.
  Solver cannot proceed until this is fixed.
	Warning: Pressure far-field boundary condition can only be used with ideal gas law.
  Please change either the boundary condition type or enable ideal gas law.
  Solver cannot proceed until this is fixed.
	
> adjoint/                parallel/               server/
define/                 parametric-study/       solve/
display/                plot/                   surface/
exit                    preferences/            turbo-workflow/
file/                   print-license-usage     views/
mesh/                   report/

> air is a fluid

Density
no data required.


Note: Enabling energy equation as required by material density method.

> adjoint/                parallel/               server/
define/                 parametric-study/       solve/
display/                plot/                   surface/
exit                    preferences/            turbo-workflow/
file/                   print-license-usage     views/
mesh/                   report/

> 
> adjoint/                parallel/               server/
define/                 parametric-study/       solve/
display/                plot/                   surface/
exit                    preferences/            turbo-workflow/
file/                   print-license-usage     views/
mesh/                   report/

> 
> adjoint/                parallel/               server/
define/                 parametric-study/       solve/
display/                plot/                   surface/
exit                    preferences/            turbo-workflow/
file/                   print-license-usage     views/
mesh/                   report/

> (farfield outlet inlet)

> (farfield outlet inlet)

> (farfield outlet inlet)

> adjoint/                parallel/               server/
define/                 parametric-study/       solve/
display/                plot/                   surface/
exit                    preferences/            turbo-workflow/
file/                   print-license-usage     views/
mesh/                   report/

> (launchvehicle)

> adjoint/                parallel/               server/
define/                 parametric-study/       solve/
display/                plot/                   surface/
exit                    preferences/            turbo-workflow/
file/                   print-license-usage     views/
mesh/                   report/

> 
> 
> 
> 
> 
> 
> adjoint/                parallel/               server/
define/                 parametric-study/       solve/
display/                plot/                   surface/
exit                    preferences/            turbo-workflow/
file/                   print-license-usage     views/
mesh/                   report/

> 
> 
> 
> adjoint/                parallel/               server/
define/                 parametric-study/       solve/
display/                plot/                   surface/
exit                    preferences/            turbo-workflow/
file/                   print-license-usage     views/
mesh/                   report/

> 
> 
> 
> adjoint/                parallel/               server/
define/                 parametric-study/       solve/
display/                plot/                   surface/
exit                    preferences/            turbo-workflow/
file/                   print-license-usage     views/
mesh/                   report/

> 
> adjoint/                parallel/               server/
define/                 parametric-study/       solve/
display/                plot/                   surface/
exit                    preferences/            turbo-workflow/
file/                   print-license-usage     views/
mesh/                   report/

> 
Initialize using the hybrid initialization method.

Checking case topology... 
-This case has multiple farfield bc 
-Case will be initialized with constant parameters

	iter		scalar-0

	1		1.000000e+00
	2		3.010070e-04
	3		6.821402e-05
	4		1.524299e-05
	5		3.777088e-06
	6		9.374806e-07
	7		2.366776e-07
	8		6.360581e-08
	9		1.762819e-08
	10		5.787276e-09

Hybrid initialization is done.

Note: Settings to improve the robustness of pathline and
      particle tracking have been automatically enabled.


> 
  iter  continuity  x-velocity  y-velocity  z-velocity      energy           k       omega     time/iter
     1  1.0000e+00  9.7223e-04  1.8024e-03  1.7020e-03  3.7550e-06  7.7866e-01  4.3316e-01  1:39:43  499
     2  9.5718e-01  6.7684e-04  1.6002e-03  1.0283e-03  3.8760e-06  6.6408e-01  3.9887e-01  1:37:45  498
     3  1.0000e+00  6.0746e-04  1.9107e-03  9.1337e-04  3.5897e-06  4.8317e-01  3.5222e-01  1:36:19  497
     4  1.0000e+00  6.3097e-04  3.2551e-03  7.7636e-04  6.4568e-06  3.3572e-01  2.8708e-01  1:36:25  496
     5  1.0000e+00  1.0204e-03  7.8808e-03  1.5292e-03  2.1578e-05  2.7572e-01  2.2504e-01  1:34:31  495
     6  2.0255e+00  2.1305e-03  1.7212e-02  3.4868e-03  6.3722e-05  3.7535e-01  2.0347e-01  1:32:59  494
     7  3.3426e+00  3.9697e-03  3.2800e-02  6.3638e-03  1.2343e-04  4.6935e-01  2.3567e-01  1:31:30  493
     8  3.9684e+00  6.1016e-03  3.9250e-02  1.0239e-02  1.7714e-04  4.4238e-01  2.4442e-01  1:30:10  492
     9  3.9850e+00  7.9298e-03  4.7451e-02  1.0625e-02  1.8556e-04  4.2981e-01  2.3806e-01  1:29:10  491
    10  4.4254e+00  6.8476e-03  4.8699e-02  1.2033e-02  2.7063e-04  4.6069e-01  2.7598e-01  1:28:16  490
    11  5.4533e+00  1.1102e-02  7.1284e-02  1.4363e-02  2.8720e-04  5.2602e-01  3.1994e-01  1:27:30  489

  iter  continuity  x-velocity  y-velocity  z-velocity      energy           k       omega     time/iter
    12  5.1920e+00  1.0075e-02  5.9023e-02  1.7166e-02  3.1330e-04  4.7542e-01  3.0184e-01  1:26:54  488
    13  6.0359e+00  1.5040e-02  8.7420e-02  1.6981e-02  3.2878e-04  5.0786e-01  3.1656e-01  1:26:13  487
    14  5.8051e+00  1.2421e-02  7.1932e-02  1.9704e-02  3.9342e-04  4.8863e-01  3.2925e-01  1:25:47  486
    15  7.0731e+00  1.8881e-02  1.1159e-01  2.1273e-02  3.8752e-04  5.1300e-01  3.3152e-01  1:25:30  485
    16  5.9646e+00  1.3821e-02  7.6647e-02  2.4184e-02  4.8703e-04  4.8987e-01  3.3723e-01  1:25:06  484
    17  7.9882e+00  2.2542e-02  1.4109e-01  2.2939e-02  4.9834e-04  5.5303e-01  3.6715e-01  1:24:43  483
    18  7.1366e+00  1.8313e-02  1.0176e-01  2.9360e-02  8.8129e-04  5.5948e-01  3.9082e-01  1:24:22  482
    19  8.8438e+00  3.0655e-02  1.8570e-01  3.1696e-02  6.0355e-04  5.3367e-01  3.4707e-01  1:24:33  481
    20  7.8939e+00  2.4325e-02  1.2961e-01  3.5820e-02  1.0249e-03  5.5134e-01  4.0183e-01  1:24:01  480
    21  9.9455e+00  3.5056e-02  2.0266e-01  3.2747e-02  7.5862e-04  5.4994e-01  3.6168e-01  1:23:46  479
    22  9.8347e+00  3.6055e-02  1.8057e-01  5.0236e-02  1.7877e-03  5.1756e-01  3.8996e-01  1:23:41  478

  iter  continuity  x-velocity  y-velocity  z-velocity      energy           k       omega     time/iter
    23  1.3142e+01  6.5276e-02  2.8029e-01  4.3801e-02  1.7973e-03  7.0818e-01  5.0216e-01  1:23:50  477
    24  1.3100e+01  6.5680e-02  2.7002e-01  5.6231e-02  1.4713e-03  5.9964e-01  4.0699e-01  1:23:44  476
    25  1.4452e+01  6.2162e-02  3.1015e-01  5.3968e-02  2.4783e-03  5.8636e-01  4.4386e-01  1:23:29  475
    26  1.6953e+01  7.9911e-02  3.6641e-01  5.8324e-02  2.4372e-03  6.2430e-01  4.1768e-01  1:23:14  474
    27  1.5251e+01  8.7910e-02  4.0421e-01  7.1469e-02  2.4592e-03  5.6515e-01  4.0072e-01  1:22:57  473
    28  1.6508e+01  8.2349e-02  3.7780e-01  6.8653e-02  2.1676e-03  6.0417e-01  4.0142e-01  1:22:46  472
    29  1.8901e+01  9.6182e-02  4.5131e-01  7.5789e-02  3.2059e-03  6.4860e-01  4.5573e-01  1:22:39  471
    30  1.7804e+01  1.0567e-01  4.5036e-01  7.6088e-02  3.0945e-03  7.0327e-01  4.8134e-01  1:22:33  470
    31  1.9610e+01  1.3176e-01  5.4577e-01  8.8957e-02  3.3494e-03  6.3958e-01  4.6221e-01  1:22:26  469
    32  1.9548e+01  1.0982e-01  4.6047e-01  7.7219e-02  3.2319e-03  6.5248e-01  4.4343e-01  1:22:17  468
    33  2.2122e+01  1.2267e-01  5.2965e-01  9.1717e-02  4.4255e-03  6.6881e-01  4.7372e-01  1:22:03  467

  iter  continuity  x-velocity  y-velocity  z-velocity      energy           k       omega     time/iter
    34  2.1514e+01  1.3386e-01  5.1982e-01  8.9899e-02  4.2510e-03  7.3368e-01  5.0644e-01  1:21:51  466
    35  2.2311e+01  1.4021e-01  5.7247e-01  9.2199e-02  3.9524e-03  6.7655e-01  4.5273e-01  1:21:35  465
    36  2.2121e+01  1.4806e-01  5.2754e-01  9.9530e-02  4.9777e-03  7.3826e-01  4.8980e-01  1:21:29  464
    37  2.4223e+01  1.6469e-01  5.6998e-01  9.6278e-02  4.7260e-03  6.6514e-01  4.4519e-01  1:21:25  463
    38  2.2812e+01  1.7702e-01  6.2996e-01  1.0784e-01  4.1259e-03  6.0644e-01  4.2969e-01  1:21:09  462
    39  2.4364e+01  1.4544e-01  5.6179e-01  9.5795e-02  5.2437e-03  7.4487e-01  5.0211e-01  1:20:56  461
    40  2.4700e+01  1.8090e-01  5.2121e-01  9.9316e-02  5.3295e-03  7.4512e-01  5.0530e-01  1:20:41  460
    41  2.7248e+01  1.7350e-01  6.1538e-01  1.0768e-01  5.9135e-03  7.2525e-01  5.1228e-01  1:20:31  459
    42  2.5364e+01  1.3647e-01  4.6616e-01  8.5621e-02  5.6424e-03  6.9365e-01  4.4773e-01  1:20:21  458
    43  2.9137e+01  1.4810e-01  6.1454e-01  1.0441e-01  8.7493e-03  8.1627e-01  5.8038e-01  1:20:20  457
    44  2.6789e+01  1.7945e-01  5.4187e-01  1.0151e-01  5.3666e-03  7.5124e-01  4.7697e-01  1:20:12  456

  iter  continuity  x-velocity  y-velocity  z-velocity      energy           k       omega     time/iter
    45  2.8824e+01  1.8473e-01  6.4878e-01  1.1893e-01  3.5990e-02  6.9066e-01  4.8459e-01  1:20:08  455
    46  2.9997e+01  1.3794e-01  6.9393e-01  8.2554e-02  8.3130e-03  6.6347e-01  4.5953e-01  1:19:49  454
    47  3.0111e+01  1.6294e-01  6.0631e-01  1.0208e-01  6.8770e-03  7.3220e-01  4.9786e-01  1:19:22  453
    48  2.9469e+01  2.1040e-01  5.1961e-01  9.7727e-02  5.5106e-03  7.3341e-01  4.8750e-01  1:19:04  452
    49  3.0310e+01  1.6362e-01  5.4012e-01  1.0400e-01  1.6613e-02  7.4654e-01  5.1495e-01  1:18:50  451
    50  3.2472e+01  1.6914e-01  5.8410e-01  1.0227e-01  6.6996e-03  6.3145e-01  4.4416e-01  1:18:40  450
    51  3.2511e+01  1.6141e-01  5.8833e-01  1.0091e-01  7.4503e-03  6.8549e-01  4.9149e-01  1:18:24  449
    52  2.9935e+01  2.0900e-01  5.1704e-01  1.0861e-01  4.9377e-03  7.7021e-01  5.3129e-01  1:18:11  448
    53  3.3192e+01  1.8150e-01  5.4877e-01  1.2043e-01  6.0567e-03  7.4363e-01  5.0510e-01  1:17:54  447
    54  3.4306e+01  1.7608e-01  5.5734e-01  1.0351e-01  5.9711e-03  7.3749e-01  4.7508e-01  1:17:43  446
    55  3.3741e+01  1.6360e-01  5.3889e-01  1.0416e-01  8.4419e-03  7.2431e-01  5.1833e-01  1:17:23  445

  iter  continuity  x-velocity  y-velocity  z-velocity      energy           k       omega     time/iter
    56  3.2193e+01  2.1326e-01  4.6278e-01  9.8166e-02  5.9851e-03  6.6956e-01  4.7326e-01  1:17:17  444
    57  3.8028e+01  1.8590e-01  5.7833e-01  1.1307e-01  7.5398e-03  7.0586e-01  5.1827e-01  1:16:58  443
    58  3.7025e+01  1.7350e-01  5.3555e-01  1.0059e-01  7.6624e-03  6.8068e-01  4.7821e-01  1:16:46  442
    59  3.7313e+01  1.8947e-01  5.4281e-01  1.0794e-01  7.0729e-03  7.1537e-01  4.9806e-01  1:16:30  441
    60  3.7640e+01  1.8770e-01  5.2568e-01  1.1166e-01  9.5544e-03  7.8808e-01  5.6178e-01  1:16:05  440
    61  4.1783e+01  1.5927e-01  5.9566e-01  1.0709e-01  8.4951e-03  7.8447e-01  4.9121e-01  1:15:51  439
    62  3.9272e+01  1.3875e-01  4.7428e-01  9.2183e-02  8.6691e-03  8.4168e-01  5.5036e-01  1:15:47  438
    63  3.9606e+01  1.7226e-01  6.0952e-01  1.1512e-01  8.4636e-03  8.7269e-01  5.6713e-01  1:15:50  437
    64  4.3466e+01  1.7363e-01  5.3024e-01  1.0887e-01  1.4488e-02  8.4758e-01  4.8332e-01  1:15:54  436
    65  4.4575e+01  1.6732e-01  6.0843e-01  1.0062e-01  1.0428e-02  9.0106e-01  5.6441e-01  1:15:47  435
    66  4.2471e+01  1.4306e-01  4.9466e-01  9.5242e-02  1.9059e-02  8.5691e-01  4.9005e-01  1:15:33  434

  iter  continuity  x-velocity  y-velocity  z-velocity      energy           k       omega     time/iter
    67  4.6377e+01  1.9200e-01  5.0933e-01  1.0726e-01  1.2824e-02  8.0698e-01  4.9165e-01  1:15:20  433
    68  4.8799e+01  2.0048e-01  5.7245e-01  1.2190e-01  3.5022e-02  8.3943e-01  5.4571e-01  1:15:13  432
    69  4.8022e+01  1.4238e-01  6.6218e-01  1.0082e-01  1.4104e-02  9.4171e-01  5.7537e-01  1:14:52  431
    70  5.0912e+01  1.7369e-01  6.1441e-01  1.1680e-01  1.1295e-02  1.0313e+00  5.8523e-01  1:14:41  430
    71  5.0753e+01  2.0013e-01  4.8559e-01  1.1001e-01  1.0221e-02  8.7651e-01  4.8174e-01  1:14:38  429
    72  5.3181e+01  1.7757e-01  5.6348e-01  1.2271e-01  1.0992e-02  9.2365e-01  5.2884e-01  1:14:29  428
    73  4.8133e+01  1.6758e-01  5.1671e-01  1.1132e-01  1.0266e-02  8.8963e-01  4.7412e-01  1:14:15  427
    74  5.4152e+01  1.8013e-01  5.6239e-01  1.1204e-01  1.4158e-02  1.1231e+00  6.2465e-01  1:14:18  426
    75  5.3280e+01  2.4603e-01  4.4765e-01  1.0863e-01  1.2313e-02  8.6551e-01  4.8681e-01  1:14:06  425
    76  5.5188e+01  1.8345e-01  5.3886e-01  1.1747e-01  1.4964e-02  9.7229e-01  5.4765e-01  1:13:39  424
    77  5.3336e+01  1.6859e-01  6.1147e-01  1.1545e-01  1.9231e-02  9.2851e-01  5.1752e-01  1:13:28  423

  iter  continuity  x-velocity  y-velocity  z-velocity      energy           k       omega     time/iter
    78  5.8588e+01  1.9001e-01  6.8015e-01  1.1922e-01  1.2197e-02  9.5571e-01  5.2609e-01  1:13:18  422
    79  5.7186e+01  1.8213e-01  4.8406e-01  1.0388e-01  1.2016e-02  8.5883e-01  4.9057e-01  1:13:15  421
    80  6.5060e+01  1.8481e-01  6.2774e-01  1.2259e-01  1.7730e-02  9.7715e-01  5.6663e-01  1:13:05  420
    81  5.8317e+01  1.4965e-01  5.1511e-01  1.0028e-01  1.3861e-02  8.8556e-01  5.1377e-01  1:12:35  419
    82  6.6356e+01  1.6076e-01  6.2020e-01  1.1236e-01  1.8625e-02  1.1286e+00  6.4936e-01  1:12:17  418
    83  6.4485e+01  2.2687e-01  4.4414e-01  1.0911e-01  1.3056e-02  9.5147e-01  5.0197e-01  1:12:00  417
    84  7.2089e+01  1.8167e-01  5.9687e-01  1.2290e-01  1.4282e-02  9.1621e-01  5.1797e-01  1:11:40  416
    85  6.4413e+01  1.7529e-01  5.0507e-01  1.0973e-01  1.5568e-02  9.1517e-01  5.1889e-01  1:11:29  415
    86  7.1722e+01  1.8849e-01  5.7900e-01  1.1895e-01  1.3857e-02  9.2777e-01  5.1976e-01  1:11:16  414
    87  6.7968e+01  1.8697e-01  4.7863e-01  1.1610e-01  2.0962e-02  8.5943e-01  4.9837e-01  1:11:17  413
    88  8.0834e+01  1.5297e-01  6.2949e-01  1.1995e-01  1.8231e-02  9.1918e-01  5.5734e-01  1:11:18  412

  iter  continuity  x-velocity  y-velocity  z-velocity      energy           k       omega     time/iter
    89  6.8723e+01  1.6354e-01  4.4881e-01  1.0086e-01  1.2105e-02  9.5259e-01  5.5204e-01  1:11:12  411
    90  7.7653e+01  1.7617e-01  5.5293e-01  1.1766e-01  1.9254e-02  1.1090e+00  6.4849e-01  1:11:16  410
    91  7.7054e+01  2.1687e-01  4.3882e-01  1.1890e-01  1.3451e-02  9.1122e-01  4.9146e-01  1:11:16  409
    92  8.1190e+01  1.4783e-01  5.1862e-01  1.1307e-01  1.5479e-02  9.3721e-01  5.4163e-01  1:10:52  408
    93  7.6502e+01  1.6152e-01  4.8824e-01  1.1382e-01  1.3233e-02  9.3308e-01  5.3296e-01  1:10:34  407
    94  8.2069e+01  1.5789e-01  5.1317e-01  1.1559e-01  1.5218e-02  9.6814e-01  5.3274e-01  1:10:13  406
    95  8.2833e+01  1.9759e-01  4.6683e-01  1.1689e-01  1.4432e-02  9.2245e-01  5.1382e-01  1:10:03  405
    96  8.8905e+01  1.5846e-01  5.4734e-01  1.2042e-01  3.3280e-02  1.1332e+00  6.2394e-01  1:09:59  404
    97  8.8103e+01  1.5187e-01  4.9630e-01  1.0450e-01  1.8054e-02  9.4962e-01  5.1794e-01  1:09:57  403
    98  9.6019e+01  1.5674e-01  5.2626e-01  1.1411e-01  2.2368e-02  1.0367e+00  5.7562e-01  1:09:50  402
    99  9.0591e+01  2.0039e-01  4.6504e-01  1.1436e-01  1.5062e-02  9.5329e-01  5.1390e-01  1:09:47  401

  iter  continuity  x-velocity  y-velocity  z-velocity      energy           k       omega     time/iter
   100  9.9062e+01  1.6154e-01  5.3259e-01  1.1845e-01  1.8155e-02  9.6608e-01  5.2470e-01  1:09:35  400
   101  9.4049e+01  2.1328e-01  5.1746e-01  1.2061e-01  1.6135e-02  9.3674e-01  5.2465e-01  1:09:24  399
   102  1.0172e+02  1.6615e-01  5.1449e-01  1.1604e-01  2.3919e-02  1.0111e+00  5.3855e-01  1:09:22  398
   103  9.7728e+01  1.8137e-01  5.0810e-01  1.1212e-01  1.7617e-02  9.9566e-01  5.3796e-01  1:09:08  397
   104  1.0258e+02  1.4532e-01  4.9909e-01  1.0795e-01  1.8833e-02  1.0156e+00  5.5798e-01  1:08:57  396
   105  1.0498e+02  1.6762e-01  5.1631e-01  1.1500e-01  2.2038e-02  9.3405e-01  5.1515e-01  1:08:49  395
   106  1.0744e+02  1.6085e-01  5.5268e-01  1.1946e-01  2.0881e-02  9.4143e-01  5.1965e-01  1:08:40  394
   107  1.0908e+02  1.6673e-01  5.1640e-01  1.1964e-01  1.9617e-02  9.7403e-01  5.4769e-01  1:08:28  393
   108  1.1477e+02  1.4949e-01  5.5841e-01  1.2433e-01  2.7754e-02  1.0179e+00  5.5055e-01  1:08:21  392
   109  1.1233e+02  1.7631e-01  5.3982e-01  1.1489e-01  1.5996e-02  9.3991e-01  5.1461e-01  1:08:15  391
   110  1.1927e+02  1.8629e-01  5.2332e-01  1.2088e-01  2.3101e-02  1.0517e+00  5.8731e-01  1:08:07  390

  iter  continuity  x-velocity  y-velocity  z-velocity      energy           k       omega     time/iter
   111  1.2138e+02  1.8079e-01  4.9866e-01  1.1975e-01  2.2409e-02  9.3932e-01  5.0707e-01  1:08:04  389
   112  1.2409e+02  1.5467e-01  5.3312e-01  1.1418e-01  2.1750e-02  1.0670e+00  5.7316e-01  1:07:56  388
   113  1.2741e+02  1.8539e-01  5.7758e-01  1.2887e-01  2.2608e-02  9.6003e-01  5.1961e-01  1:07:44  387
   114  1.3390e+02  1.7935e-01  5.6982e-01  1.2223e-01  4.1317e-02  9.8642e-01  5.4005e-01  1:07:26  386
   115  1.3315e+02  1.5807e-01  6.0009e-01  1.1790e-01  2.9351e-02  1.0338e+00  5.7471e-01  1:07:16  385
   116  1.5065e+02  1.6401e-01  6.4269e-01  1.3059e-01  3.9800e-02  1.0311e+00  5.4941e-01  1:07:10  384
   117  1.3609e+02  1.6937e-01  5.3880e-01  1.1405e-01  2.5440e-02  9.8572e-01  5.3195e-01  1:07:08  383
   118  1.5345e+02  2.2527e-01  6.7339e-01  1.3684e-01  2.8393e-02  1.1021e+00  5.8631e-01  1:06:58  382
   119  1.4755e+02  1.8546e-01  5.5268e-01  1.3252e-01  1.9644e-02  9.4426e-01  4.9305e-01  1:06:42  381
   120  1.6425e+02  1.8877e-01  6.4597e-01  1.3584e-01  3.3908e-02  1.1005e+00  5.6310e-01  1:06:22  380
   121  1.4528e+02  1.8018e-01  5.5186e-01  1.2489e-01  2.1224e-02  9.5026e-01  5.0304e-01  1:05:49  379

  iter  continuity  x-velocity  y-velocity  z-velocity      energy           k       omega     time/iter
   122  1.7577e+02  2.0856e-01  6.5807e-01  1.3868e-01  3.4912e-02  1.1748e+00  6.1300e-01  1:05:34  378
   123  1.5868e+02  2.0004e-01  5.5794e-01  1.2906e-01  2.6004e-02  9.8786e-01  5.2895e-01  1:05:29  377
   124  1.7356e+02  1.8886e-01  6.6650e-01  1.4222e-01  5.1770e-02  1.0680e+00  5.5572e-01  1:05:31  376
   125  1.6290e+02  1.8801e-01  5.8485e-01  1.2669e-01  3.0404e-02  9.9246e-01  5.2527e-01  1:05:23  375
   126  1.9422e+02  2.0080e-01  6.8381e-01  1.3216e-01  2.5715e-02  1.0486e+00  5.5436e-01  1:04:03  374
   127  1.7072e+02  1.7314e-01  5.4698e-01  1.2880e-01  2.1202e-02  9.5537e-01  5.0237e-01  1:04:09  373
   128  1.8773e+02  1.6877e-01  5.7083e-01  1.3176e-01  3.6008e-02  1.2304e+00  6.4220e-01  1:04:02  372
   129  1.7130e+02  1.8233e-01  4.7407e-01  1.2022e-01  2.8784e-02  9.6606e-01  5.0291e-01  1:03:59  371
   130  2.1473e+02  1.8096e-01  5.9830e-01  1.1981e-01  4.6168e-02  1.2744e+00  6.5290e-01  1:03:57  370
   131  1.7717e+02  1.8765e-01  5.7777e-01  1.2956e-01  3.3494e-02  9.8013e-01  5.1101e-01  1:03:55  369
   132  2.2078e+02  2.1285e-01  6.7233e-01  1.5090e-01  4.8524e-02  1.0389e+00  5.4030e-01  1:03:58  368

  iter  continuity  x-velocity  y-velocity  z-velocity      energy           k       omega     time/iter
   133  1.8790e+02  1.7325e-01  5.4473e-01  1.1872e-01  2.6531e-02  9.9732e-01  5.2737e-01  1:02:43  367
   134  2.4362e+02  2.2204e-01  6.7459e-01  1.4749e-01  3.3637e-02  1.1656e+00  6.0680e-01  1:01:32  366
   135  1.9059e+02  1.6892e-01  5.2769e-01  1.1791e-01  2.2269e-02  9.6085e-01  4.9809e-01  1:01:52  365
   136  2.3059e+02  1.8980e-01  6.1999e-01  1.4886e-01  3.1733e-02  1.2481e+00  6.3529e-01  1:02:04  364
   137  2.0826e+02  1.7411e-01  4.6916e-01  1.2778e-01  2.6573e-02  9.8337e-01  5.0554e-01  1:01:06  363
   138  2.5855e+02  1.8009e-01  5.8380e-01  1.2659e-01  4.0511e-02  1.0897e+00  5.6469e-01  1:01:19  362
   139  2.1523e+02  1.6717e-01  5.7992e-01  1.3369e-01  3.5855e-02  9.9738e-01  5.2154e-01  1:01:38  361
   140  2.6105e+02  2.1805e-01  6.2616e-01  1.4464e-01  4.8202e-02  1.0603e+00  5.4926e-01  1:01:39  360
   141  2.3507e+02  1.7387e-01  5.3879e-01  1.2116e-01  3.3970e-02  9.9080e-01  5.2041e-01  1:00:31  359
   142  2.9309e+02  1.9693e-01  6.0792e-01  1.4104e-01  4.0496e-02  1.0713e+00  5.4362e-01  1:00:40  358
   143  2.4160e+02  1.5295e-01  4.6527e-01  1.2007e-01  2.6154e-02  9.6420e-01  5.0126e-01  0:59:23  357

  iter  continuity  x-velocity  y-velocity  z-velocity      energy           k       omega     time/iter
   144  2.7391e+02  1.7100e-01  5.9174e-01  1.3157e-01  4.5098e-02  1.4681e+00  7.4595e-01  0:59:40  356
   145  2.4598e+02  1.3355e-01  4.5635e-01  1.1882e-01  3.0180e-02  9.8574e-01  5.0218e-01  0:59:43  355
   146  2.9444e+02  1.7721e-01  4.9213e-01  1.1781e-01  3.1440e-02  1.0814e+00  5.4800e-01  0:58:36  354
   147  2.4653e+02  1.5029e-01  4.6280e-01  1.1267e-01  3.1298e-02  9.8211e-01  5.1634e-01  0:57:49  353
   148  2.9285e+02  1.7058e-01  5.0460e-01  1.1435e-01  3.2663e-02  1.0608e+00  5.4767e-01  0:58:13  352
   149  2.5692e+02  1.5903e-01  4.4003e-01  1.0610e-01  2.1659e-02  9.9366e-01  5.1969e-01  0:57:16  351
   150  3.2210e+02  1.5092e-01  4.6196e-01  1.1774e-01  3.3621e-02  1.0802e+00  5.5632e-01  0:56:34  350
   151  2.8205e+02  1.2473e-01  4.0978e-01  9.1131e-02  3.0017e-02  9.5585e-01  5.0336e-01  0:55:58  349
   152  3.1706e+02  1.3507e-01  4.3637e-01  9.7297e-02  2.5400e-02  1.2179e+00  6.4643e-01  0:56:42  348
   153  2.7067e+02  1.2416e-01  3.5980e-01  9.7601e-02  2.1813e-02  9.7469e-01  5.0637e-01  0:56:14  347
   154  3.5213e+02  1.2918e-01  4.1443e-01  9.7461e-02  2.5871e-02  1.0555e+00  5.6518e-01  0:55:47  346

  iter  continuity  x-velocity  y-velocity  z-velocity      energy           k       omega     time/iter
   155  3.0031e+02  1.2181e-01  3.5453e-01  9.6446e-02  1.9716e-02  9.9070e-01  5.2935e-01  0:55:21  345
   156  3.4601e+02  1.2471e-01  3.9903e-01  9.8229e-02  2.4428e-02  1.0036e+00  5.1313e-01  0:56:06  344
   157  3.0488e+02  1.2527e-01  3.4371e-01  9.3717e-02  2.3649e-02  9.9012e-01  5.2977e-01  0:55:33  343
   158  3.7788e+02  1.2344e-01  4.0598e-01  9.6933e-02  3.0170e-02  9.9968e-01  5.2946e-01  0:54:58  342
   159  3.3885e+02  1.0455e-01  3.4859e-01  8.8800e-02  2.0589e-02  9.6416e-01  5.3833e-01  0:54:25  341
   160  3.7350e+02  1.1608e-01  3.6217e-01  9.6987e-02  2.4741e-02  1.0545e+00  5.8091e-01  0:54:01  340
   161  3.5277e+02  1.1607e-01  3.3769e-01  9.2834e-02  2.5167e-02  9.9793e-01  5.4504e-01  0:53:43  339
   162  4.2121e+02  1.2687e-01  3.6679e-01  9.6906e-02  2.1123e-02  9.9611e-01  5.3367e-01  0:53:28  338
   163  4.0741e+02  1.0703e-01  3.3617e-01  9.5696e-02  2.2669e-02  9.7437e-01  5.2184e-01  0:53:15  337
   164  4.4398e+02  1.1737e-01  3.6418e-01  1.0181e-01  3.3276e-02  9.6307e-01  5.0677e-01  0:53:01  336
   165  4.5705e+02  1.1784e-01  3.8900e-01  1.0395e-01  2.1688e-02  9.9483e-01  5.4213e-01  0:52:46  335

  iter  continuity  x-velocity  y-velocity  z-velocity      energy           k       omega     time/iter
   166  5.1811e+02  1.2508e-01  3.7197e-01  1.1887e-01  2.8117e-02  9.6965e-01  5.2244e-01  0:52:36  334
   167  5.2876e+02  1.0847e-01  3.7126e-01  1.1351e-01  2.5999e-02  9.1863e-01  5.0581e-01  0:52:21  333
   168  5.9936e+02  1.1971e-01  3.5149e-01  1.2315e-01  3.4662e-02  1.0490e+00  6.0493e-01  0:52:09  332
   169  6.7502e+02  1.1351e-01  3.6883e-01  1.2624e-01  3.4933e-02  9.7002e-01  5.1691e-01  0:52:03  331
   170  8.0961e+02  1.1679e-01  3.7936e-01  1.3708e-01  3.2605e-02  9.8736e-01  5.3198e-01  0:51:56  330
   171  9.3391e+02  1.1042e-01  3.4447e-01  1.5315e-01  3.2548e-02  9.4500e-01  5.1063e-01  0:51:43  329
   172  1.2295e+03  1.0763e-01  3.1833e-01  1.6717e-01  3.2411e-02  9.1476e-01  4.9865e-01  0:51:30  328
   173  1.5466e+03  8.6685e-02  2.3214e-01  1.3998e-01  2.0486e-02  8.4479e-01  4.8608e-01  0:51:21  327
   174  2.0740e+03  6.5889e-02  1.3972e-01  1.0834e-01  1.7578e-02  6.9574e-01  4.1722e-01  0:51:11  326
   175  2.6415e+03  4.2523e-02  9.3167e-02  7.3474e-02  1.1200e-02  5.8122e-01  4.0287e-01  0:50:53  325
   176  3.3804e+03  3.5165e-02  7.5728e-02  6.6233e-02  9.5001e-03  5.4313e-01  3.1714e-01  0:50:36  324

  iter  continuity  x-velocity  y-velocity  z-velocity      energy           k       omega     time/iter
   177  4.4902e+03  3.0888e-02  5.6998e-02  5.8228e-02  8.4572e-03  3.6861e-01  3.0142e-01  0:50:25  323
   178  6.2312e+03  2.7264e-02  4.2655e-02  5.4094e-02  8.3067e-03  3.0784e-01  3.2631e-01  0:50:11  322
   179  8.4510e+03  2.5175e-02  3.7181e-02  4.9336e-02  7.6817e-03  3.1815e-01  3.3245e-01  0:50:04  321
   180  1.0976e+04  2.3764e-02  3.6286e-02  4.2190e-02  7.2544e-03  3.9880e-01  3.0292e-01  0:50:00  320
   181  1.4414e+04  2.2441e-02  3.3334e-02  3.7867e-02  7.3393e-03  3.4996e-01  2.6572e-01  0:49:51  319
   182  1.9153e+04  2.1753e-02  2.8695e-02  3.5991e-02  7.3456e-03  3.2605e-01  3.0661e-01  0:49:40  318
   183  2.5665e+04  2.2153e-02  2.6557e-02  3.8514e-02  7.6520e-03  3.2851e-01  3.0830e-01  0:49:51  317

 turbulent viscosity limited to viscosity ratio of 1.000000e+05 in 15 cells 
   184  3.3842e+04  2.2532e-02  2.8131e-02  4.0619e-02  7.7345e-03  5.6423e-01  4.1679e-01  0:49:33  316

 turbulent viscosity limited to viscosity ratio of 1.000000e+05 in 44 cells 
   185  4.4812e+04  2.2563e-02  3.0282e-02  4.2880e-02  7.9757e-03  4.9915e-01  3.9383e-01  0:49:18  315

 turbulent viscosity limited to viscosity ratio of 1.000000e+05 in 2717 cells 
   186  6.0364e+04  2.3612e-02  3.0376e-02  4.4835e-02  8.1176e-03  6.4031e-01  4.2253e-01  0:49:00  314

 turbulent viscosity limited to viscosity ratio of 1.000000e+05 in 14393 cells 
   187  7.9514e+04  2.6442e-02  3.1566e-02  4.6168e-02  8.3033e-03  4.0885e-01  3.7044e-01  0:48:35  313

 turbulent viscosity limited to viscosity ratio of 1.000000e+05 in 33709 cells 

  iter  continuity  x-velocity  y-velocity  z-velocity      energy           k       omega     time/iter
   188  1.0741e+05  2.7575e-02  3.3837e-02  4.7489e-02  8.8894e-03  3.6463e-01  3.5448e-01  0:48:27  312

 turbulent viscosity limited to viscosity ratio of 1.000000e+05 in 51046 cells 
   189  1.4381e+05  2.8430e-02  3.7349e-02  4.8068e-02  9.4170e-03  3.8906e-01  3.3051e-01  0:48:31  311

 turbulent viscosity limited to viscosity ratio of 1.000000e+05 in 67266 cells 
   190  1.8889e+05  3.0377e-02  3.9443e-02  4.9484e-02  9.5565e-03  4.6258e-01  3.3461e-01  0:48:30  310

 turbulent viscosity limited to viscosity ratio of 1.000000e+05 in 90406 cells 
   191  2.4854e+05  3.2373e-02  4.1476e-02  4.9303e-02  1.0251e-02  4.8975e-01  3.3916e-01  0:48:33  309

 turbulent viscosity limited to viscosity ratio of 1.000000e+05 in 109876 cells 
   192  3.2951e+05  3.3781e-02  4.7107e-02  5.0635e-02  9.9604e-03  6.2587e-01  3.7171e-01  0:48:30  308

 turbulent viscosity limited to viscosity ratio of 1.000000e+05 in 122767 cells 
   193  4.2906e+05  3.4116e-02  5.1325e-02  5.4018e-02  9.4262e-03  7.5830e-01  4.2212e-01  0:48:17  307

 turbulent viscosity limited to viscosity ratio of 1.000000e+05 in 131726 cells 
   194  5.4983e+05  3.3576e-02  5.2605e-02  5.6372e-02  9.5107e-03  6.0803e-01  3.7432e-01  0:48:02  306

 turbulent viscosity limited to viscosity ratio of 1.000000e+05 in 136353 cells 
   195  7.1278e+05  3.4998e-02  5.3717e-02  5.8109e-02  9.8309e-03  6.5891e-01  3.6874e-01  0:47:45  305

 turbulent viscosity limited to viscosity ratio of 1.000000e+05 in 142484 cells 
   196  9.3162e+05  3.5794e-02  5.1316e-02  5.8082e-02  9.5205e-03  6.9100e-01  3.6599e-01  0:47:28  304

 turbulent viscosity limited to viscosity ratio of 1.000000e+05 in 148228 cells 
   197  1.2082e+06  3.4090e-02  4.8855e-02  5.5826e-02  1.0450e-02  6.9107e-01  3.7284e-01  0:47:10  303

 turbulent viscosity limited to viscosity ratio of 1.000000e+05 in 153221 cells 
   198  1.5807e+06  3.3441e-02  5.2812e-02  5.3977e-02  1.0004e-02  6.6855e-01  3.4059e-01  0:46:59  302

 turbulent viscosity limited to viscosity ratio of 1.000000e+05 in 158871 cells 

  iter  continuity  x-velocity  y-velocity  z-velocity      energy           k       omega     time/iter
   199  2.0597e+06  3.4511e-02  5.1907e-02  5.4180e-02  1.0300e-02  6.2433e-01  3.5631e-01  0:46:47  301

 turbulent viscosity limited to viscosity ratio of 1.000000e+05 in 164656 cells 
   200  2.6916e+06  3.8176e-02  5.4929e-02  5.6233e-02  1.0593e-02  6.5909e-01  3.6263e-01  0:46:46  300

 turbulent viscosity limited to viscosity ratio of 1.000000e+05 in 173016 cells 
   201  3.5389e+06  3.8453e-02  5.9388e-02  6.0421e-02  1.0082e-02  6.2387e-01  3.6541e-01  0:46:40  299

 turbulent viscosity limited to viscosity ratio of 1.000000e+05 in 181757 cells 
   202  4.6573e+06  3.7657e-02  6.1513e-02  6.5914e-02  1.1279e-02  7.0947e-01  3.9292e-01  0:46:35  298

 turbulent viscosity limited to viscosity ratio of 1.000000e+05 in 191371 cells 
   203  6.0556e+06  3.8901e-02  6.3766e-02  7.0741e-02  1.1700e-02  7.4672e-01  3.9289e-01  0:46:27  297

 turbulent viscosity limited to viscosity ratio of 1.000000e+05 in 200920 cells 
   204  7.6114e+06  4.0904e-02  6.5718e-02  7.1294e-02  1.2327e-02  7.4658e-01  3.6801e-01  0:46:16  296

 turbulent viscosity limited to viscosity ratio of 1.000000e+05 in 207920 cells 
   205  1.0016e+07  4.1456e-02  6.8595e-02  7.3154e-02  1.2743e-02  8.2731e-01  4.0545e-01  0:46:00  295

 turbulent viscosity limited to viscosity ratio of 1.000000e+05 in 211779 cells 
   206  1.2670e+07  4.3357e-02  7.0979e-02  7.5417e-02  1.3266e-02  7.4237e-01  3.6672e-01  0:45:41  294

 turbulent viscosity limited to viscosity ratio of 1.000000e+05 in 214371 cells 
   207  1.6597e+07  4.8040e-02  7.8038e-02  8.1416e-02  1.3672e-02  7.3607e-01  3.6407e-01  0:45:29  293

 turbulent viscosity limited to viscosity ratio of 1.000000e+05 in 217108 cells 
   208  2.1540e+07  5.1261e-02  8.0538e-02  8.4479e-02  1.3627e-02  7.3477e-01  3.5830e-01  0:45:24  292

 turbulent viscosity limited to viscosity ratio of 1.000000e+05 in 222368 cells 
   209  2.7910e+07  5.7347e-02  8.5214e-02  9.1693e-02  1.3850e-02  7.9740e-01  4.1161e-01  0:45:16  291

 absolute pressure limited to 5.000000e+10 in 6 cells on zone 988 

 turbulent viscosity limited to viscosity ratio of 1.000000e+05 in 227887 cells 

  iter  continuity  x-velocity  y-velocity  z-velocity      energy           k       omega     time/iter
   210  3.6777e+07  6.0491e-02  9.0209e-02  9.6779e-02  1.3265e-02  7.6608e-01  3.7831e-01  0:45:15  290

 absolute pressure limited to 5.000000e+10 in 39 cells on zone 988 

 turbulent viscosity limited to viscosity ratio of 1.000000e+05 in 233431 cells 
   211  4.7384e+07  5.8962e-02  9.2334e-02  9.3704e-02  1.3061e-02  8.1775e-01  3.7713e-01  0:45:13  289

 absolute pressure limited to 5.000000e+10 in 149 cells on zone 988 

 turbulent viscosity limited to viscosity ratio of 1.000000e+05 in 237127 cells 
   212  6.0939e+07  5.7184e-02  8.9350e-02  9.4330e-02  1.4033e-02  9.4043e-01  4.7594e-01  0:45:08  288

 absolute pressure limited to 5.000000e+10 in 525 cells on zone 988 

 turbulent viscosity limited to viscosity ratio of 1.000000e+05 in 237910 cells 
   213  7.5078e+07  5.7677e-02  8.5828e-02  1.0211e-01  1.4285e-02  8.9375e-01  4.4457e-01  0:44:57  287

 absolute pressure limited to 5.000000e+10 in 5527 cells on zone 988 

 turbulent viscosity limited to viscosity ratio of 1.000000e+05 in 237139 cells 
   214  8.8377e+07  5.4801e-02  8.5094e-02  1.0757e-01  1.4615e-02  8.6999e-01  4.1682e-01  0:44:48  286

 absolute pressure limited to 5.000000e+10 in 60315 cells on zone 988 

 turbulent viscosity limited to viscosity ratio of 1.000000e+05 in 237429 cells 
   215  9.3699e+07  5.3824e-02  8.2392e-02  1.1145e-01  1.7185e-02  8.5332e-01  3.9580e-01  0:44:39  285

 absolute pressure limited to 5.000000e+10 in 103935 cells on zone 988 

 turbulent viscosity limited to viscosity ratio of 1.000000e+05 in 238990 cells 
   216  9.2264e+07  6.0557e-02  8.7830e-02  1.1293e-01  1.8923e-02  9.1065e-01  4.2595e-01  0:44:25  284

 absolute pressure limited to 5.000000e+10 in 124029 cells on zone 988 

 turbulent viscosity limited to viscosity ratio of 1.000000e+05 in 241327 cells 
   217  9.6768e+07  6.6736e-02  9.8823e-02  1.2312e-01  1.9588e-02  9.2217e-01  4.3957e-01  0:44:11  283

 absolute pressure limited to 5.000000e+10 in 168543 cells on zone 988 

 turbulent viscosity limited to viscosity ratio of 1.000000e+05 in 246937 cells 
   218  1.0314e+08  6.3817e-02  1.1450e-01  1.3211e-01  1.9800e-02  9.2249e-01  4.2946e-01  0:43:58  282

 absolute pressure limited to 5.000000e+10 in 201498 cells on zone 988 

 turbulent viscosity limited to viscosity ratio of 1.000000e+05 in 252200 cells 
   219  1.0389e+08  6.1527e-02  1.1836e-01  1.3403e-01  1.9484e-02  9.1794e-01  4.2255e-01  0:43:51  281

 absolute pressure limited to 5.000000e+10 in 275091 cells on zone 988 

 turbulent viscosity limited to viscosity ratio of 1.000000e+05 in 254377 cells 
   220  1.0427e+08  6.2842e-02  1.2803e-01  1.2936e-01  2.0934e-02  9.5320e-01  4.5058e-01  0:43:44  280

 absolute pressure limited to 5.000000e+10 in 372041 cells on zone 988 

 turbulent viscosity limited to viscosity ratio of 1.000000e+05 in 255850 cells 

  iter  continuity  x-velocity  y-velocity  z-velocity      energy           k       omega     time/iter
   221  1.0014e+08  6.3702e-02  1.3329e-01  1.2773e-01  2.1123e-02  8.9580e-01  4.3202e-01  0:43:36  279

 absolute pressure limited to 5.000000e+10 in 391799 cells on zone 988 

 turbulent viscosity limited to viscosity ratio of 1.000000e+05 in 253089 cells 
   222  9.9326e+07  6.8967e-02  1.4785e-01  1.4158e-01  3.1069e-02  9.3079e-01  4.4823e-01  0:43:22  278

 absolute pressure limited to 5.000000e+10 in 392302 cells on zone 988 

 turbulent viscosity limited to viscosity ratio of 1.000000e+05 in 244413 cells 
   223  1.1263e+08  8.3451e-02  1.8318e-01  1.5751e-01  3.0896e-02  9.9296e-01  4.8260e-01  0:43:17  277

 absolute pressure limited to 5.000000e+10 in 392421 cells on zone 988 

 turbulent viscosity limited to viscosity ratio of 1.000000e+05 in 247834 cells 
   224  1.3390e+08  8.8451e-02  1.7172e-01  1.7590e-01  3.4354e-02  1.0089e+00  4.9432e-01  0:43:05  276

 absolute pressure limited to 5.000000e+10 in 392424 cells on zone 988 

 turbulent viscosity limited to viscosity ratio of 1.000000e+05 in 259534 cells 
   225  1.3951e+08  7.7228e-02  1.7371e-01  1.8146e-01  3.0082e-02  1.0040e+00  4.9706e-01  0:42:56  275

 absolute pressure limited to 5.000000e+10 in 392449 cells on zone 988 

 turbulent viscosity limited to viscosity ratio of 1.000000e+05 in 274029 cells 
   226  1.4930e+08  7.6381e-02  1.6084e-01  1.9496e-01  2.4433e-02  1.0214e+00  5.0380e-01  0:42:42  274

 absolute pressure limited to 5.000000e+10 in 392422 cells on zone 988 

 turbulent viscosity limited to viscosity ratio of 1.000000e+05 in 280145 cells 
   227  1.5907e+08  7.9963e-02  1.6590e-01  2.1640e-01  2.5264e-02  1.0354e+00  5.1205e-01  0:42:28  273

 absolute pressure limited to 5.000000e+10 in 392428 cells on zone 988 

 turbulent viscosity limited to viscosity ratio of 1.000000e+05 in 286744 cells 
   228  1.6485e+08  7.6866e-02  1.7155e-01  2.2521e-01  2.5002e-02  1.0067e+00  5.0194e-01  0:42:23  272

 absolute pressure limited to 5.000000e+10 in 392435 cells on zone 988 

 turbulent viscosity limited to viscosity ratio of 1.000000e+05 in 291618 cells 
   229  1.7111e+08  7.9218e-02  1.9094e-01  2.3228e-01  2.5789e-02  1.0068e+00  4.9929e-01  0:42:22  271

 absolute pressure limited to 5.000000e+10 in 392440 cells on zone 988 

 turbulent viscosity limited to viscosity ratio of 1.000000e+05 in 295854 cells 
   230  1.7865e+08  8.7446e-02  1.9672e-01  2.4558e-01  2.6886e-02  1.0076e+00  5.0182e-01  0:42:20  270

 absolute pressure limited to 5.000000e+10 in 392441 cells on zone 988 

 turbulent viscosity limited to viscosity ratio of 1.000000e+05 in 296487 cells 
   231  1.8086e+08  8.6749e-02  1.9376e-01  2.4398e-01  2.7440e-02  1.0037e+00  5.0069e-01  0:42:14  269

 absolute pressure limited to 5.000000e+10 in 392441 cells on zone 988 

 turbulent viscosity limited to viscosity ratio of 1.000000e+05 in 298872 cells 

  iter  continuity  x-velocity  y-velocity  z-velocity      energy           k       omega     time/iter
   232  1.8050e+08  8.5537e-02  1.9927e-01  2.4938e-01  2.8248e-02  1.0036e+00  4.9945e-01  0:42:03  268

 absolute pressure limited to 5.000000e+10 in 392437 cells on zone 988 

 turbulent viscosity limited to viscosity ratio of 1.000000e+05 in 303813 cells 
   233  1.8994e+08  8.9229e-02  2.1845e-01  2.5423e-01  2.6409e-02  1.0065e+00  4.9940e-01  0:41:50  267

 absolute pressure limited to 5.000000e+10 in 392435 cells on zone 988 

 turbulent viscosity limited to viscosity ratio of 1.000000e+05 in 307513 cells 
   234  1.9895e+08  9.1809e-02  2.1328e-01  2.4441e-01  2.7610e-02  1.0111e+00  5.0048e-01  0:41:36  266

 absolute pressure limited to 5.000000e+10 in 392449 cells on zone 988 

 turbulent viscosity limited to viscosity ratio of 1.000000e+05 in 307870 cells 
   235  2.0503e+08  9.1651e-02  2.1039e-01  2.5274e-01  3.0025e-02  1.0056e+00  4.9729e-01  0:41:18  265

 absolute pressure limited to 5.000000e+10 in 392440 cells on zone 988 

 turbulent viscosity limited to viscosity ratio of 1.000000e+05 in 311432 cells 
   236  2.2292e+08  9.8391e-02  2.2276e-01  2.6650e-01  2.8461e-02  1.0035e+00  4.9817e-01  0:41:10  264

 absolute pressure limited to 5.000000e+10 in 392435 cells on zone 988 

 turbulent viscosity limited to viscosity ratio of 1.000000e+05 in 313047 cells 
   237  2.2296e+08  9.5308e-02  2.1891e-01  2.6719e-01  2.9432e-02  9.9988e-01  4.9801e-01  0:41:07  263

 absolute pressure limited to 5.000000e+10 in 392429 cells on zone 988 

 turbulent viscosity limited to viscosity ratio of 1.000000e+05 in 317027 cells 
   238  2.2475e+08  9.3729e-02  2.3027e-01  2.7346e-01  3.1274e-02  1.0017e+00  4.9801e-01  0:41:01  262

 absolute pressure limited to 5.000000e+10 in 392432 cells on zone 988 

 turbulent viscosity limited to viscosity ratio of 1.000000e+05 in 318082 cells 
   239  2.4535e+08  9.9220e-02  2.3826e-01  2.9036e-01  2.9082e-02  9.9985e-01  4.9880e-01  0:40:58  261

 absolute pressure limited to 5.000000e+10 in 392442 cells on zone 988 

 turbulent viscosity limited to viscosity ratio of 1.000000e+05 in 324635 cells 
   240  2.5858e+08  1.0216e-01  2.2288e-01  2.7946e-01  3.0253e-02  9.9516e-01  4.9506e-01  0:40:58  260

 absolute pressure limited to 5.000000e+10 in 392445 cells on zone 988 

 turbulent viscosity limited to viscosity ratio of 1.000000e+05 in 333324 cells 
   241  2.5830e+08  9.9722e-02  2.3858e-01  2.6925e-01  3.0517e-02  1.0025e+00  4.9780e-01  0:40:52  259

 absolute pressure limited to 5.000000e+10 in 392451 cells on zone 988 

 turbulent viscosity limited to viscosity ratio of 1.000000e+05 in 357824 cells 
   242  2.6701e+08  9.8770e-02  2.5403e-01  2.7382e-01  3.0646e-02  9.9989e-01  4.9983e-01  0:40:37  258

 absolute pressure limited to 5.000000e+10 in 392442 cells on zone 988 

 turbulent viscosity limited to viscosity ratio of 1.000000e+05 in 370126 cells 

  iter  continuity  x-velocity  y-velocity  z-velocity      energy           k       omega     time/iter
   243  2.8044e+08  1.0567e-01  2.4699e-01  2.7728e-01  3.0709e-02  9.9941e-01  4.9955e-01  0:40:20  257

 absolute pressure limited to 5.000000e+10 in 392434 cells on zone 988 

 turbulent viscosity limited to viscosity ratio of 1.000000e+05 in 371992 cells 
   244  2.8669e+08  1.0034e-01  2.3218e-01  2.7939e-01  3.0049e-02  9.9594e-01  4.9829e-01  0:40:15  256

 absolute pressure limited to 5.000000e+10 in 392443 cells on zone 988 

 turbulent viscosity limited to viscosity ratio of 1.000000e+05 in 377653 cells 
   245  2.9891e+08  1.0248e-01  2.3164e-01  2.7810e-01  3.1623e-02  9.8742e-01  4.9632e-01  0:39:55  255

 absolute pressure limited to 5.000000e+10 in 392438 cells on zone 988 

 turbulent viscosity limited to viscosity ratio of 1.000000e+05 in 382526 cells 
   246  2.8834e+08  1.0484e-01  2.4211e-01  2.7463e-01  3.0371e-02  9.8570e-01  4.9384e-01  0:39:38  254

 absolute pressure limited to 5.000000e+10 in 392466 cells on zone 988 

 turbulent viscosity limited to viscosity ratio of 1.000000e+05 in 385493 cells 
   247  3.0250e+08  9.9131e-02  2.4537e-01  2.8439e-01  3.1199e-02  9.8936e-01  4.9195e-01  0:39:23  253

 absolute pressure limited to 5.000000e+10 in 392434 cells on zone 988 

 turbulent viscosity limited to viscosity ratio of 1.000000e+05 in 386550 cells 
   248  3.1097e+08  9.4930e-02  2.3135e-01  2.9414e-01  3.0885e-02  9.8739e-01  4.8962e-01  0:39:09  252

 absolute pressure limited to 5.000000e+10 in 392441 cells on zone 988 

 turbulent viscosity limited to viscosity ratio of 1.000000e+05 in 386988 cells 
   249  3.0824e+08  9.6540e-02  2.3095e-01  2.8396e-01  3.1800e-02  9.9385e-01  4.9277e-01  0:39:07  251

 absolute pressure limited to 5.000000e+10 in 392443 cells on zone 988 

 turbulent viscosity limited to viscosity ratio of 1.000000e+05 in 387129 cells 
   250  3.1508e+08  9.9778e-02  2.3495e-01  2.9166e-01  3.1864e-02  9.9733e-01  4.9714e-01  0:39:00  250

 absolute pressure limited to 5.000000e+10 in 392441 cells on zone 988 

 turbulent viscosity limited to viscosity ratio of 1.000000e+05 in 387071 cells 
   251  3.2046e+08  1.0326e-01  2.4109e-01  2.8393e-01  3.0131e-02  9.9308e-01  4.9534e-01  0:38:50  249

 absolute pressure limited to 5.000000e+10 in 392436 cells on zone 988 

 turbulent viscosity limited to viscosity ratio of 1.000000e+05 in 387239 cells 
   252  3.1918e+08  9.7962e-02  2.3459e-01  2.7874e-01  3.1459e-02  9.9317e-01  4.9432e-01  0:38:41  248

 absolute pressure limited to 5.000000e+10 in 392434 cells on zone 988 

 turbulent viscosity limited to viscosity ratio of 1.000000e+05 in 387559 cells 
   253  3.2402e+08  9.8269e-02  2.4545e-01  2.8858e-01  3.0650e-02  9.9036e-01  4.9276e-01  0:38:29  247

 absolute pressure limited to 5.000000e+10 in 392437 cells on zone 988 

 turbulent viscosity limited to viscosity ratio of 1.000000e+05 in 387672 cells 

  iter  continuity  x-velocity  y-velocity  z-velocity      energy           k       omega     time/iter
   254  3.2508e+08  1.0618e-01  2.4917e-01  2.8224e-01  3.0442e-02  9.8905e-01  4.9217e-01  0:38:11  246

 absolute pressure limited to 5.000000e+10 in 392449 cells on zone 988 

 turbulent viscosity limited to viscosity ratio of 1.000000e+05 in 387759 cells 
   255  3.3070e+08  1.0747e-01  2.3838e-01  2.7882e-01  3.1475e-02  9.8591e-01  4.8901e-01  0:37:56  245

 absolute pressure limited to 5.000000e+10 in 392427 cells on zone 988 

 turbulent viscosity limited to viscosity ratio of 1.000000e+05 in 387614 cells 
   256  3.2524e+08  1.0230e-01  2.4017e-01  2.7970e-01  3.2440e-02  9.8832e-01  4.8850e-01  0:37:45  244

 absolute pressure limited to 5.000000e+10 in 392440 cells on zone 988 

 turbulent viscosity limited to viscosity ratio of 1.000000e+05 in 387802 cells 
   257  3.3613e+08  9.6105e-02  2.3401e-01  2.8363e-01  3.3333e-02  9.8803e-01  4.8906e-01  0:37:33  243

 absolute pressure limited to 5.000000e+10 in 392424 cells on zone 988 

 turbulent viscosity limited to viscosity ratio of 1.000000e+05 in 387718 cells 
   258  3.4840e+08  1.0179e-01  2.3962e-01  2.8342e-01  3.1406e-02  9.7957e-01  4.8498e-01  0:37:25  242

 absolute pressure limited to 5.000000e+10 in 392445 cells on zone 988 

 turbulent viscosity limited to viscosity ratio of 1.000000e+05 in 387757 cells 
   259  3.5363e+08  9.9881e-02  2.3627e-01  2.7758e-01  3.0453e-02  9.9608e-01  4.9611e-01  0:37:23  241

 absolute pressure limited to 5.000000e+10 in 392443 cells on zone 988 

 turbulent viscosity limited to viscosity ratio of 1.000000e+05 in 387706 cells 
   260  3.5215e+08  9.9586e-02  2.4067e-01  2.6996e-01  2.9517e-02  9.9376e-01  4.9558e-01  0:37:17  240

 absolute pressure limited to 5.000000e+10 in 392431 cells on zone 988 

 turbulent viscosity limited to viscosity ratio of 1.000000e+05 in 387878 cells 
   261  3.3608e+08  9.6171e-02  2.3773e-01  2.7104e-01  3.1051e-02  9.7897e-01  4.9022e-01  0:37:12  239

 absolute pressure limited to 5.000000e+10 in 392442 cells on zone 988 

 turbulent viscosity limited to viscosity ratio of 1.000000e+05 in 388002 cells 
   262  3.2881e+08  9.9816e-02  2.3908e-01  2.7597e-01  3.3547e-02  9.7527e-01  4.8779e-01  0:37:05  238

 absolute pressure limited to 5.000000e+10 in 392429 cells on zone 988 

 turbulent viscosity limited to viscosity ratio of 1.000000e+05 in 387977 cells 
   263  3.2154e+08  1.0301e-01  2.4081e-01  2.9235e-01  3.3913e-02  9.8446e-01  4.8936e-01  0:36:58  237

 absolute pressure limited to 5.000000e+10 in 392456 cells on zone 988 

 turbulent viscosity limited to viscosity ratio of 1.000000e+05 in 388107 cells 
   264  3.5069e+08  1.0550e-01  2.5131e-01  3.0810e-01  3.3018e-02  9.8894e-01  4.8904e-01  0:36:52  236

 absolute pressure limited to 5.000000e+10 in 392431 cells on zone 988 

 turbulent viscosity limited to viscosity ratio of 1.000000e+05 in 387860 cells 

  iter  continuity  x-velocity  y-velocity  z-velocity      energy           k       omega     time/iter
   265  3.6979e+08  1.0157e-01  2.4145e-01  2.8814e-01  3.1235e-02  9.9772e-01  4.9711e-01  0:36:42  235

 absolute pressure limited to 5.000000e+10 in 392441 cells on zone 988 

 turbulent viscosity limited to viscosity ratio of 1.000000e+05 in 388068 cells 
   266  3.5705e+08  9.8385e-02  2.4188e-01  2.6384e-01  3.2124e-02  9.9929e-01  4.9935e-01  0:36:38  234

 absolute pressure limited to 5.000000e+10 in 392441 cells on zone 988 

 turbulent viscosity limited to viscosity ratio of 1.000000e+05 in 388048 cells 
   267  3.5408e+08  9.9317e-02  2.4373e-01  2.7221e-01  3.1973e-02  9.9725e-01  4.9863e-01  0:36:27  233

 absolute pressure limited to 5.000000e+10 in 392444 cells on zone 988 

 turbulent viscosity limited to viscosity ratio of 1.000000e+05 in 388215 cells 
   268  3.6115e+08  1.0036e-01  2.4643e-01  2.7811e-01  3.2968e-02  9.9193e-01  4.9743e-01  0:36:12  232

 absolute pressure limited to 5.000000e+10 in 392431 cells on zone 988 

 turbulent viscosity limited to viscosity ratio of 1.000000e+05 in 388067 cells 
   269  3.6195e+08  9.8672e-02  2.3210e-01  2.7590e-01  3.3199e-02  9.9773e-01  4.9793e-01  0:36:04  231

 absolute pressure limited to 5.000000e+10 in 392418 cells on zone 988 

 turbulent viscosity limited to viscosity ratio of 1.000000e+05 in 388082 cells 
   270  3.5547e+08  9.5359e-02  2.2779e-01  2.7227e-01  3.3620e-02  9.8932e-01  4.9507e-01  0:35:53  230

 absolute pressure limited to 5.000000e+10 in 392439 cells on zone 988 

 turbulent viscosity limited to viscosity ratio of 1.000000e+05 in 388085 cells 
   271  3.5771e+08  9.7323e-02  2.3944e-01  2.5416e-01  3.3782e-02  9.8401e-01  4.9135e-01  0:35:41  229

 absolute pressure limited to 5.000000e+10 in 392433 cells on zone 988 

 turbulent viscosity limited to viscosity ratio of 1.000000e+05 in 387619 cells 
   272  3.4023e+08  9.6184e-02  2.3567e-01  2.6005e-01  3.3084e-02  9.8710e-01  4.9308e-01  0:35:33  228

 absolute pressure limited to 5.000000e+10 in 392439 cells on zone 988 

 turbulent viscosity limited to viscosity ratio of 1.000000e+05 in 387693 cells 
   273  3.5434e+08  1.0452e-01  2.4331e-01  2.7598e-01  3.2360e-02  9.9267e-01  4.9296e-01  0:35:31  227

 absolute pressure limited to 5.000000e+10 in 392427 cells on zone 988 

 turbulent viscosity limited to viscosity ratio of 1.000000e+05 in 388259 cells 
   274  3.6680e+08  1.0209e-01  2.4156e-01  2.7102e-01  3.4264e-02  9.8492e-01  4.8824e-01  0:35:21  226

 absolute pressure limited to 5.000000e+10 in 392446 cells on zone 988 

 turbulent viscosity limited to viscosity ratio of 1.000000e+05 in 388236 cells 
   275  3.6002e+08  1.0136e-01  2.3788e-01  2.6849e-01  3.4689e-02  9.6926e-01  4.8217e-01  0:35:14  225

 absolute pressure limited to 5.000000e+10 in 392440 cells on zone 988 

 turbulent viscosity limited to viscosity ratio of 1.000000e+05 in 388250 cells 

  iter  continuity  x-velocity  y-velocity  z-velocity      energy           k       omega     time/iter
   276  3.6777e+08  1.0066e-01  2.4733e-01  2.7862e-01  3.1230e-02  9.9176e-01  4.9160e-01  0:34:59  224

 absolute pressure limited to 5.000000e+10 in 392433 cells on zone 988 

 turbulent viscosity limited to viscosity ratio of 1.000000e+05 in 387996 cells 
   277  3.6855e+08  9.7699e-02  2.4664e-01  2.7128e-01  3.1260e-02  9.9371e-01  4.9390e-01  0:34:49  223

 absolute pressure limited to 5.000000e+10 in 392442 cells on zone 988 

 turbulent viscosity limited to viscosity ratio of 1.000000e+05 in 388135 cells 
   278  3.7149e+08  9.6993e-02  2.4274e-01  2.7554e-01  3.1274e-02  9.8804e-01  4.9119e-01  0:34:40  222

 absolute pressure limited to 5.000000e+10 in 392414 cells on zone 988 

 turbulent viscosity limited to viscosity ratio of 1.000000e+05 in 388168 cells 
   279  3.7341e+08  1.0140e-01  2.3596e-01  2.7547e-01  3.2031e-02  9.8243e-01  4.8603e-01  0:34:33  221

 absolute pressure limited to 5.000000e+10 in 392431 cells on zone 988 

 turbulent viscosity limited to viscosity ratio of 1.000000e+05 in 388271 cells 
   280  3.8169e+08  1.0117e-01  2.3672e-01  2.6819e-01  3.1423e-02  9.9078e-01  4.9146e-01  0:34:23  220

 absolute pressure limited to 5.000000e+10 in 392432 cells on zone 988 

 turbulent viscosity limited to viscosity ratio of 1.000000e+05 in 388042 cells 
   281  3.8566e+08  9.6473e-02  2.3616e-01  2.6910e-01  3.3196e-02  9.8446e-01  4.8851e-01  0:34:08  219

 absolute pressure limited to 5.000000e+10 in 392446 cells on zone 988 

 turbulent viscosity limited to viscosity ratio of 1.000000e+05 in 388214 cells 
   282  4.2141e+08  9.7178e-02  2.4338e-01  2.8783e-01  3.1750e-02  9.8043e-01  4.8506e-01  0:33:57  218

 absolute pressure limited to 5.000000e+10 in 392434 cells on zone 988 

 turbulent viscosity limited to viscosity ratio of 1.000000e+05 in 388156 cells 
   283  4.3825e+08  9.5412e-02  2.2229e-01  2.7172e-01  3.0692e-02  9.9605e-01  4.9559e-01  0:33:49  217

 absolute pressure limited to 5.000000e+10 in 392431 cells on zone 988 

 turbulent viscosity limited to viscosity ratio of 1.000000e+05 in 388267 cells 
   284  4.2668e+08  9.0751e-02  2.2320e-01  2.5179e-01  3.1425e-02  9.9118e-01  4.9346e-01  0:33:43  216

 absolute pressure limited to 5.000000e+10 in 392433 cells on zone 988 

 turbulent viscosity limited to viscosity ratio of 1.000000e+05 in 388014 cells 
   285  4.1991e+08  9.5949e-02  2.2367e-01  2.6041e-01  3.2242e-02  9.8337e-01  4.9071e-01  0:33:37  215

 absolute pressure limited to 5.000000e+10 in 392421 cells on zone 988 

 turbulent viscosity limited to viscosity ratio of 1.000000e+05 in 388228 cells 
   286  4.1775e+08  9.4512e-02  2.3012e-01  2.6958e-01  3.2804e-02  9.8913e-01  4.9089e-01  0:33:34  214

 absolute pressure limited to 5.000000e+10 in 392428 cells on zone 988 

 turbulent viscosity limited to viscosity ratio of 1.000000e+05 in 388280 cells 

  iter  continuity  x-velocity  y-velocity  z-velocity      energy           k       omega     time/iter
   287  4.2926e+08  9.3628e-02  2.2570e-01  2.6564e-01  3.1335e-02  9.8579e-01  4.9120e-01  0:33:37  213

 absolute pressure limited to 5.000000e+10 in 392429 cells on zone 988 

 turbulent viscosity limited to viscosity ratio of 1.000000e+05 in 388274 cells 
   288  4.4195e+08  9.4778e-02  2.2152e-01  2.5790e-01  3.1372e-02  9.9003e-01  4.9086e-01  0:33:33  212

 absolute pressure limited to 5.000000e+10 in 392418 cells on zone 988 

 turbulent viscosity limited to viscosity ratio of 1.000000e+05 in 388143 cells 
   289  4.4672e+08  9.1788e-02  2.2216e-01  2.5455e-01  3.2048e-02  9.9882e-01  4.9887e-01  0:33:28  211

 absolute pressure limited to 5.000000e+10 in 392429 cells on zone 988 

 turbulent viscosity limited to viscosity ratio of 1.000000e+05 in 388067 cells 
   290  4.5184e+08  9.4615e-02  2.3206e-01  2.5954e-01  3.1337e-02  9.9318e-01  4.9744e-01  0:33:21  210

 absolute pressure limited to 5.000000e+10 in 392446 cells on zone 988 

 turbulent viscosity limited to viscosity ratio of 1.000000e+05 in 388350 cells 
   291  4.7524e+08  9.7298e-02  2.3431e-01  2.6407e-01  3.0642e-02  9.9222e-01  4.9594e-01  0:33:05  209

 absolute pressure limited to 5.000000e+10 in 392429 cells on zone 988 

 turbulent viscosity limited to viscosity ratio of 1.000000e+05 in 388385 cells 
   292  4.9513e+08  9.0154e-02  2.1821e-01  2.6358e-01  3.0700e-02  9.9713e-01  4.9742e-01  0:32:47  208

 absolute pressure limited to 5.000000e+10 in 392419 cells on zone 988 

 turbulent viscosity limited to viscosity ratio of 1.000000e+05 in 388325 cells 
   293  4.6764e+08  9.0010e-02  2.1902e-01  2.5994e-01  3.3219e-02  9.9207e-01  4.9618e-01  0:32:35  207

 absolute pressure limited to 5.000000e+10 in 392432 cells on zone 988 

 turbulent viscosity limited to viscosity ratio of 1.000000e+05 in 388439 cells 
   294  4.7595e+08  9.2548e-02  2.3028e-01  2.5993e-01  3.1160e-02  9.8751e-01  4.9365e-01  0:32:17  206

 absolute pressure limited to 5.000000e+10 in 392435 cells on zone 988 

 turbulent viscosity limited to viscosity ratio of 1.000000e+05 in 388358 cells 
   295  5.2700e+08  9.0945e-02  2.2289e-01  2.5946e-01  3.2394e-02  9.9888e-01  4.9871e-01  0:32:06  205

 absolute pressure limited to 5.000000e+10 in 392414 cells on zone 988 

 turbulent viscosity limited to viscosity ratio of 1.000000e+05 in 388403 cells 
   296  5.1972e+08  8.6928e-02  2.1622e-01  2.4801e-01  3.3540e-02  9.9544e-01  4.9694e-01  0:32:00  204

 absolute pressure limited to 5.000000e+10 in 392420 cells on zone 988 

 turbulent viscosity limited to viscosity ratio of 1.000000e+05 in 388382 cells 
   297  5.5152e+08  8.9506e-02  2.2813e-01  2.4973e-01  3.0927e-02  9.8788e-01  4.9297e-01  0:31:51  203

 absolute pressure limited to 5.000000e+10 in 392434 cells on zone 988 

 turbulent viscosity limited to viscosity ratio of 1.000000e+05 in 388462 cells 

  iter  continuity  x-velocity  y-velocity  z-velocity      energy           k       omega     time/iter
   298  6.0426e+08  8.9710e-02  2.1511e-01  2.5211e-01  2.7973e-02  9.6288e-01  4.8600e-01  0:31:51  202

 absolute pressure limited to 5.000000e+10 in 392425 cells on zone 988 

 turbulent viscosity limited to viscosity ratio of 1.000000e+05 in 388398 cells 
   299  5.9411e+08  8.3556e-02  2.0059e-01  2.3880e-01  2.9685e-02  9.9304e-01  4.9321e-01  0:31:45  201

 absolute pressure limited to 5.000000e+10 in 392426 cells on zone 988 

 turbulent viscosity limited to viscosity ratio of 1.000000e+05 in 388469 cells 
   300  5.9774e+08  8.5006e-02  2.1329e-01  2.3326e-01  3.0618e-02  9.8764e-01  4.9071e-01  0:31:36  200

 absolute pressure limited to 5.000000e+10 in 392420 cells on zone 988 

 turbulent viscosity limited to viscosity ratio of 1.000000e+05 in 388365 cells 
   301  6.2014e+08  8.5836e-02  2.1950e-01  2.4178e-01  2.9889e-02  9.8834e-01  4.9062e-01  0:31:23  199

 absolute pressure limited to 5.000000e+10 in 392413 cells on zone 988 

 turbulent viscosity limited to viscosity ratio of 1.000000e+05 in 388447 cells 
   302  6.4344e+08  8.4478e-02  2.0586e-01  2.4268e-01  2.9071e-02  9.8051e-01  4.8674e-01  0:31:08  198

 absolute pressure limited to 5.000000e+10 in 392421 cells on zone 988 

 turbulent viscosity limited to viscosity ratio of 1.000000e+05 in 388268 cells 
   303  6.5745e+08  8.4099e-02  2.0421e-01  2.3352e-01  3.0656e-02  9.9704e-01  4.9687e-01  0:30:55  197

 absolute pressure limited to 5.000000e+10 in 392425 cells on zone 988 

 turbulent viscosity limited to viscosity ratio of 1.000000e+05 in 388304 cells 
   304  6.8346e+08  8.5302e-02  2.1246e-01  2.3611e-01  2.9114e-02  9.9217e-01  4.9515e-01  0:30:38  196

 absolute pressure limited to 5.000000e+10 in 392437 cells on zone 988 

 turbulent viscosity limited to viscosity ratio of 1.000000e+05 in 388092 cells 
   305  7.2266e+08  8.2297e-02  2.0622e-01  2.3658e-01  2.7948e-02  9.9652e-01  4.9655e-01  0:30:29  195

 absolute pressure limited to 5.000000e+10 in 392413 cells on zone 988 

 turbulent viscosity limited to viscosity ratio of 1.000000e+05 in 388316 cells 
   306  7.2814e+08  8.0395e-02  2.0136e-01  2.2262e-01  2.6100e-02  9.8771e-01  4.9358e-01  0:30:23  194

 absolute pressure limited to 5.000000e+10 in 392415 cells on zone 988 

 turbulent viscosity limited to viscosity ratio of 1.000000e+05 in 388117 cells 
   307  6.9722e+08  7.9835e-02  1.9741e-01  2.1268e-01  2.7903e-02  9.8236e-01  4.9089e-01  0:30:16  193

 absolute pressure limited to 5.000000e+10 in 392434 cells on zone 988 

 turbulent viscosity limited to viscosity ratio of 1.000000e+05 in 388358 cells 
   308  7.0554e+08  8.0643e-02  2.0653e-01  2.2611e-01  2.8714e-02  9.7501e-01  4.8593e-01  0:30:08  192

 absolute pressure limited to 5.000000e+10 in 392418 cells on zone 988 

 turbulent viscosity limited to viscosity ratio of 1.000000e+05 in 388255 cells 

  iter  continuity  x-velocity  y-velocity  z-velocity      energy           k       omega     time/iter
   309  7.3557e+08  8.2105e-02  1.9933e-01  2.2850e-01  2.8677e-02  9.7808e-01  4.8429e-01  0:30:01  191

 absolute pressure limited to 5.000000e+10 in 392428 cells on zone 988 

 turbulent viscosity limited to viscosity ratio of 1.000000e+05 in 388358 cells 
   310  7.7281e+08  7.3258e-02  1.7971e-01  2.3482e-01  2.8632e-02  9.9708e-01  4.9723e-01  0:29:52  190

 absolute pressure limited to 5.000000e+10 in 392433 cells on zone 988 

 turbulent viscosity limited to viscosity ratio of 1.000000e+05 in 388195 cells 
   311  8.2583e+08  7.6894e-02  1.8590e-01  2.2467e-01  2.8546e-02  9.9013e-01  4.9461e-01  0:29:41  189

 absolute pressure limited to 5.000000e+10 in 392415 cells on zone 988 

 turbulent viscosity limited to viscosity ratio of 1.000000e+05 in 388322 cells 
   312  8.3302e+08  7.3022e-02  1.9346e-01  2.1598e-01  2.7770e-02  9.9286e-01  4.9407e-01  0:29:24  188

 absolute pressure limited to 5.000000e+10 in 392410 cells on zone 988 

 turbulent viscosity limited to viscosity ratio of 1.000000e+05 in 388243 cells 
   313  8.0962e+08  7.1710e-02  1.8955e-01  2.1091e-01  2.8323e-02  9.9097e-01  4.9416e-01  0:29:08  187

 absolute pressure limited to 5.000000e+10 in 392428 cells on zone 988 

 turbulent viscosity limited to viscosity ratio of 1.000000e+05 in 388347 cells 
   314  8.2734e+08  7.2590e-02  1.8729e-01  2.2005e-01  2.7436e-02  9.8214e-01  4.8968e-01  0:28:56  186

 absolute pressure limited to 5.000000e+10 in 392425 cells on zone 988 

 turbulent viscosity limited to viscosity ratio of 1.000000e+05 in 388330 cells 
   315  8.5400e+08  7.3311e-02  1.8355e-01  2.1572e-01  2.6995e-02  9.9310e-01  4.9316e-01  0:28:47  185

 absolute pressure limited to 5.000000e+10 in 392414 cells on zone 988 

 turbulent viscosity limited to viscosity ratio of 1.000000e+05 in 388402 cells 
   316  8.6044e+08  7.3480e-02  1.8383e-01  2.1072e-01  2.7192e-02  9.8146e-01  4.8887e-01  0:28:38  184

 absolute pressure limited to 5.000000e+10 in 392422 cells on zone 988 

 turbulent viscosity limited to viscosity ratio of 1.000000e+05 in 388406 cells 
   317  8.5234e+08  7.4474e-02  1.9175e-01  2.1003e-01  2.7443e-02  9.9746e-01  4.9743e-01  0:28:39  183

 absolute pressure limited to 5.000000e+10 in 392434 cells on zone 988 

 turbulent viscosity limited to viscosity ratio of 1.000000e+05 in 388440 cells 
   318  8.7696e+08  7.5130e-02  1.9180e-01  1.9979e-01  2.6149e-02  9.9447e-01  4.9579e-01  0:28:36  182

 absolute pressure limited to 5.000000e+10 in 392410 cells on zone 988 

 turbulent viscosity limited to viscosity ratio of 1.000000e+05 in 388399 cells 
   319  8.7618e+08  7.4371e-02  1.9705e-01  2.1064e-01  2.6245e-02  9.8787e-01  4.9278e-01  0:28:30  181

 absolute pressure limited to 5.000000e+10 in 392432 cells on zone 988 

 turbulent viscosity limited to viscosity ratio of 1.000000e+05 in 388488 cells 

  iter  continuity  x-velocity  y-velocity  z-velocity      energy           k       omega     time/iter
   320  8.8693e+08  7.4874e-02  1.9492e-01  1.9736e-01  2.8786e-02  9.9137e-01  4.9286e-01  0:28:21  180

 absolute pressure limited to 5.000000e+10 in 392427 cells on zone 988 

 turbulent viscosity limited to viscosity ratio of 1.000000e+05 in 388334 cells 
   321  8.9823e+08  7.8822e-02  1.9868e-01  1.9983e-01  2.9581e-02  9.9423e-01  4.9477e-01  0:28:08  179

 absolute pressure limited to 5.000000e+10 in 392420 cells on zone 988 

 turbulent viscosity limited to viscosity ratio of 1.000000e+05 in 388421 cells 
   322  8.9253e+08  7.9475e-02  2.0250e-01  2.0279e-01  3.0087e-02  9.9354e-01  4.9472e-01  0:27:56  178

 absolute pressure limited to 5.000000e+10 in 392435 cells on zone 988 

 turbulent viscosity limited to viscosity ratio of 1.000000e+05 in 388374 cells 
   323  9.1941e+08  8.4097e-02  2.0792e-01  2.0903e-01  2.8632e-02  9.8742e-01  4.9174e-01  0:27:41  177

 absolute pressure limited to 5.000000e+10 in 392414 cells on zone 988 

 turbulent viscosity limited to viscosity ratio of 1.000000e+05 in 388411 cells 
   324  9.6598e+08  7.9314e-02  2.0470e-01  2.0609e-01  2.7516e-02  9.9503e-01  4.9471e-01  0:27:26  176

 absolute pressure limited to 5.000000e+10 in 392415 cells on zone 988 

 turbulent viscosity limited to viscosity ratio of 1.000000e+05 in 388291 cells 
   325  9.6267e+08  7.8495e-02  2.0336e-01  2.0286e-01  2.9233e-02  9.9463e-01  4.9532e-01  0:27:17  175

 absolute pressure limited to 5.000000e+10 in 392417 cells on zone 988 

 turbulent viscosity limited to viscosity ratio of 1.000000e+05 in 388457 cells 
   326  9.5913e+08  7.8597e-02  2.0169e-01  1.9470e-01  2.7256e-02  9.9787e-01  4.9805e-01  0:27:07  174

 absolute pressure limited to 5.000000e+10 in 392422 cells on zone 988 

 turbulent viscosity limited to viscosity ratio of 1.000000e+05 in 388383 cells 
   327  1.0058e+09  7.6736e-02  2.0321e-01  1.9412e-01  2.6436e-02  9.9366e-01  4.9594e-01  0:27:01  173

 absolute pressure limited to 5.000000e+10 in 392419 cells on zone 988 

 turbulent viscosity limited to viscosity ratio of 1.000000e+05 in 388429 cells 
   328  1.0117e+09  7.4483e-02  1.8846e-01  1.9635e-01  2.9378e-02  9.8051e-01  4.9333e-01  0:26:53  172

 absolute pressure limited to 5.000000e+10 in 392421 cells on zone 988 

 turbulent viscosity limited to viscosity ratio of 1.000000e+05 in 388332 cells 
   329  1.0082e+09  7.4995e-02  1.9159e-01  2.0150e-01  2.7528e-02  9.9558e-01  4.9551e-01  0:26:46  171

 absolute pressure limited to 5.000000e+10 in 392427 cells on zone 988 

 turbulent viscosity limited to viscosity ratio of 1.000000e+05 in 388345 cells 
   330  1.0658e+09  7.4477e-02  1.9266e-01  1.9276e-01  2.6016e-02  9.9432e-01  4.9497e-01  0:26:38  170

 absolute pressure limited to 5.000000e+10 in 392396 cells on zone 988 

 turbulent viscosity limited to viscosity ratio of 1.000000e+05 in 388254 cells 

  iter  continuity  x-velocity  y-velocity  z-velocity      energy           k       omega     time/iter
   331  1.0181e+09  7.2119e-02  1.8282e-01  1.8930e-01  2.8357e-02  9.9348e-01  4.9510e-01  0:26:31  169

 absolute pressure limited to 5.000000e+10 in 392415 cells on zone 988 

 turbulent viscosity limited to viscosity ratio of 1.000000e+05 in 388352 cells 
   332  1.0317e+09  7.5296e-02  1.9105e-01  1.8948e-01  2.9101e-02  9.9840e-01  4.9831e-01  0:26:17  168

 absolute pressure limited to 5.000000e+10 in 392423 cells on zone 988 

 turbulent viscosity limited to viscosity ratio of 1.000000e+05 in 388251 cells 
   333  1.0949e+09  7.4545e-02  1.9439e-01  1.9399e-01  2.6981e-02  9.9613e-01  4.9710e-01  0:26:09  167

 absolute pressure limited to 5.000000e+10 in 392405 cells on zone 988 

 turbulent viscosity limited to viscosity ratio of 1.000000e+05 in 388409 cells 
   334  1.0750e+09  7.1783e-02  1.8921e-01  1.8406e-01  2.7571e-02  9.9538e-01  4.9631e-01  0:26:00  166

 absolute pressure limited to 5.000000e+10 in 392407 cells on zone 988 

 turbulent viscosity limited to viscosity ratio of 1.000000e+05 in 388374 cells 
   335  1.0509e+09  7.3233e-02  1.9153e-01  1.7535e-01  2.7879e-02  9.8598e-01  4.9284e-01  0:25:50  165

 absolute pressure limited to 5.000000e+10 in 392404 cells on zone 988 

 turbulent viscosity limited to viscosity ratio of 1.000000e+05 in 388442 cells 
   336  1.0771e+09  7.5227e-02  1.9450e-01  1.7870e-01  2.9696e-02  9.7130e-01  4.8688e-01  0:25:40  164

 absolute pressure limited to 5.000000e+10 in 392428 cells on zone 988 

 turbulent viscosity limited to viscosity ratio of 1.000000e+05 in 388382 cells 
   337  1.1121e+09  7.3442e-02  1.9151e-01  1.7754e-01  2.7048e-02  9.9311e-01  4.9242e-01  0:25:30  163

 absolute pressure limited to 5.000000e+10 in 392408 cells on zone 988 

 turbulent viscosity limited to viscosity ratio of 1.000000e+05 in 388486 cells 
   338  1.0935e+09  7.1602e-02  1.8018e-01  1.7616e-01  2.7076e-02  9.9950e-01  4.9909e-01  0:25:20  162

 absolute pressure limited to 5.000000e+10 in 392425 cells on zone 988 

 turbulent viscosity limited to viscosity ratio of 1.000000e+05 in 388392 cells 
   339  1.0823e+09  7.5941e-02  1.9387e-01  1.8524e-01  2.9078e-02  9.9744e-01  4.9811e-01  0:25:12  161

 absolute pressure limited to 5.000000e+10 in 392411 cells on zone 988 

 turbulent viscosity limited to viscosity ratio of 1.000000e+05 in 388520 cells 
   340  1.1101e+09  7.5050e-02  1.9432e-01  1.9352e-01  2.5663e-02  9.9518e-01  4.9690e-01  0:25:00  160

 absolute pressure limited to 5.000000e+10 in 392409 cells on zone 988 

 turbulent viscosity limited to viscosity ratio of 1.000000e+05 in 388363 cells 
   341  1.1066e+09  7.1029e-02  1.8277e-01  1.9673e-01  2.9164e-02  9.8975e-01  4.9448e-01  0:24:51  159

 absolute pressure limited to 5.000000e+10 in 392418 cells on zone 988 

 turbulent viscosity limited to viscosity ratio of 1.000000e+05 in 388517 cells 

  iter  continuity  x-velocity  y-velocity  z-velocity      energy           k       omega     time/iter
   342  1.1066e+09  7.4442e-02  1.9313e-01  1.8749e-01  2.7243e-02  9.8202e-01  4.9046e-01  0:24:40  158

 absolute pressure limited to 5.000000e+10 in 392420 cells on zone 988 

 turbulent viscosity limited to viscosity ratio of 1.000000e+05 in 388421 cells 
   343  1.1248e+09  7.6124e-02  1.9391e-01  1.8310e-01  2.6782e-02  9.8058e-01  4.8579e-01  0:24:35  157

 absolute pressure limited to 5.000000e+10 in 392424 cells on zone 988 

 turbulent viscosity limited to viscosity ratio of 1.000000e+05 in 388504 cells 
   344  1.1026e+09  7.6449e-02  1.9831e-01  1.8540e-01  2.5789e-02  9.9704e-01  4.9675e-01  0:24:28  156

 absolute pressure limited to 5.000000e+10 in 392403 cells on zone 988 

 turbulent viscosity limited to viscosity ratio of 1.000000e+05 in 388431 cells 
   345  1.0692e+09  7.4320e-02  1.8923e-01  1.8783e-01  2.6333e-02  9.8647e-01  4.9320e-01  0:24:22  155

 absolute pressure limited to 5.000000e+10 in 392402 cells on zone 988 

 turbulent viscosity limited to viscosity ratio of 1.000000e+05 in 388400 cells 
   346  1.0814e+09  7.2905e-02  1.8514e-01  1.9317e-01  2.6207e-02  9.5824e-01  4.8647e-01  0:24:16  154

 absolute pressure limited to 5.000000e+10 in 392422 cells on zone 988 

 turbulent viscosity limited to viscosity ratio of 1.000000e+05 in 388334 cells 
   347  1.1049e+09  7.2691e-02  1.8945e-01  1.9387e-01  2.6542e-02  9.8867e-01  4.8883e-01  0:24:18  153

 absolute pressure limited to 5.000000e+10 in 392420 cells on zone 988 

 turbulent viscosity limited to viscosity ratio of 1.000000e+05 in 388452 cells 
   348  1.1214e+09  7.4080e-02  1.9167e-01  1.8634e-01  2.6191e-02  9.7119e-01  4.8217e-01  0:24:04  152

 absolute pressure limited to 5.000000e+10 in 392414 cells on zone 988 

 turbulent viscosity limited to viscosity ratio of 1.000000e+05 in 388445 cells 
   349  1.1086e+09  7.5038e-02  1.9475e-01  1.9501e-01  2.7294e-02  9.8085e-01  4.8257e-01  0:23:49  151

 absolute pressure limited to 5.000000e+10 in 392403 cells on zone 988 

 turbulent viscosity limited to viscosity ratio of 1.000000e+05 in 388488 cells 
   350  1.0906e+09  7.8282e-02  1.9740e-01  1.9502e-01  2.7305e-02  9.9295e-01  4.9295e-01  0:23:35  150

 absolute pressure limited to 5.000000e+10 in 392413 cells on zone 988 

 turbulent viscosity limited to viscosity ratio of 1.000000e+05 in 388533 cells 
   351  1.0856e+09  7.5285e-02  1.9349e-01  2.0500e-01  2.7678e-02  9.9508e-01  4.9527e-01  0:23:17  149

 absolute pressure limited to 5.000000e+10 in 392406 cells on zone 988 

 turbulent viscosity limited to viscosity ratio of 1.000000e+05 in 388515 cells 
   352  1.1201e+09  7.4614e-02  1.8890e-01  2.0466e-01  2.6264e-02  9.9362e-01  4.9368e-01  0:23:06  148

 absolute pressure limited to 5.000000e+10 in 392416 cells on zone 988 

 turbulent viscosity limited to viscosity ratio of 1.000000e+05 in 388489 cells 

  iter  continuity  x-velocity  y-velocity  z-velocity      energy           k       omega     time/iter
   353  1.1095e+09  7.4724e-02  1.9212e-01  1.9630e-01  2.5536e-02  9.8587e-01  4.9006e-01  0:23:01  147

 absolute pressure limited to 5.000000e+10 in 392417 cells on zone 988 

 turbulent viscosity limited to viscosity ratio of 1.000000e+05 in 388501 cells 
   354  1.1285e+09  7.2310e-02  1.8532e-01  1.9972e-01  2.4664e-02  9.9858e-01  4.9851e-01  0:22:56  146

 absolute pressure limited to 5.000000e+10 in 392414 cells on zone 988 

 turbulent viscosity limited to viscosity ratio of 1.000000e+05 in 388496 cells 
   355  1.1556e+09  7.3324e-02  1.8295e-01  1.9080e-01  2.3665e-02  9.9516e-01  4.9720e-01  0:22:54  145

 absolute pressure limited to 5.000000e+10 in 392406 cells on zone 988 

 turbulent viscosity limited to viscosity ratio of 1.000000e+05 in 388549 cells 
   356  1.1308e+09  7.3799e-02  1.8575e-01  1.8931e-01  2.3926e-02  9.9604e-01  4.9669e-01  0:22:52  144

 absolute pressure limited to 5.000000e+10 in 392419 cells on zone 988 

 turbulent viscosity limited to viscosity ratio of 1.000000e+05 in 388378 cells 
   357  1.1169e+09  7.3632e-02  1.9063e-01  1.8876e-01  2.5921e-02  9.8816e-01  4.9367e-01  0:22:46  143

 absolute pressure limited to 5.000000e+10 in 392410 cells on zone 988 

 turbulent viscosity limited to viscosity ratio of 1.000000e+05 in 388518 cells 
   358  1.1144e+09  7.5945e-02  1.9417e-01  1.8895e-01  2.5193e-02  9.8146e-01  4.9083e-01  0:22:33  142

 absolute pressure limited to 5.000000e+10 in 392409 cells on zone 988 

 turbulent viscosity limited to viscosity ratio of 1.000000e+05 in 388506 cells 
   359  1.1124e+09  7.9659e-02  1.9692e-01  1.9039e-01  2.5899e-02  9.8335e-01  4.8875e-01  0:22:18  141

 absolute pressure limited to 5.000000e+10 in 392413 cells on zone 988 

 turbulent viscosity limited to viscosity ratio of 1.000000e+05 in 388563 cells 
   360  1.1121e+09  7.7116e-02  1.9321e-01  1.9698e-01  2.9300e-02  9.9783e-01  4.9722e-01  0:22:04  140

 absolute pressure limited to 5.000000e+10 in 392402 cells on zone 988 

 turbulent viscosity limited to viscosity ratio of 1.000000e+05 in 388485 cells 
   361  1.1146e+09  7.6259e-02  1.9945e-01  1.9317e-01  2.8886e-02  9.9504e-01  4.9586e-01  0:21:48  139

 absolute pressure limited to 5.000000e+10 in 392409 cells on zone 988 

 turbulent viscosity limited to viscosity ratio of 1.000000e+05 in 388550 cells 
   362  1.1440e+09  7.9472e-02  1.9943e-01  2.0203e-01  2.7103e-02  9.9423e-01  4.9545e-01  0:21:32  138

 absolute pressure limited to 5.000000e+10 in 392419 cells on zone 988 

 turbulent viscosity limited to viscosity ratio of 1.000000e+05 in 388569 cells 
   363  1.1924e+09  7.8643e-02  1.9888e-01  1.9618e-01  2.7169e-02  9.8695e-01  4.9185e-01  0:21:21  137

 absolute pressure limited to 5.000000e+10 in 392407 cells on zone 988 

 turbulent viscosity limited to viscosity ratio of 1.000000e+05 in 388532 cells 

  iter  continuity  x-velocity  y-velocity  z-velocity      energy           k       omega     time/iter
   364  1.1819e+09  8.0080e-02  2.0646e-01  1.9124e-01  2.7216e-02  9.6883e-01  4.8499e-01  0:21:14  136

 absolute pressure limited to 5.000000e+10 in 392417 cells on zone 988 

 turbulent viscosity limited to viscosity ratio of 1.000000e+05 in 388565 cells 
   365  1.1618e+09  8.1982e-02  2.1449e-01  1.8455e-01  2.7777e-02  9.5086e-01  4.7232e-01  0:21:08  135

 absolute pressure limited to 5.000000e+10 in 392411 cells on zone 988 

 turbulent viscosity limited to viscosity ratio of 1.000000e+05 in 388557 cells 
   366  1.1542e+09  8.1706e-02  2.0734e-01  1.8684e-01  2.8098e-02  9.8941e-01  4.8930e-01  0:21:01  134

[...]
   427  1.1845e+09  8.1379e-02  2.0784e-01  1.9370e-01  2.9767e-02  9.9957e-01  4.9980e-01  0:11:23   73

 absolute pressure limited to 5.000000e+10 in 392411 cells on zone 988 

 turbulent viscosity limited to viscosity ratio of 1.000000e+05 in 388558 cells 
   428  1.2308e+09  8.2359e-02  2.0926e-01  1.9171e-01  2.9110e-02  9.9607e-01  4.9907e-01  0:11:15   72

 absolute pressure limited to 5.000000e+10 in 392415 cells on zone 988 

 turbulent viscosity limited to viscosity ratio of 1.000000e+05 in 388498 cells 
   429  1.1915e+09  8.0588e-02  2.0763e-01  1.8289e-01  2.9075e-02  9.9096e-01  4.9812e-01  0:11:08   71

 absolute pressure limited to 5.000000e+10 in 392409 cells on zone 988 

 turbulent viscosity limited to viscosity ratio of 1.000000e+05 in 388558 cells 

  iter  continuity  x-velocity  y-velocity  z-velocity      energy           k       omega     time/iter
   430  1.1851e+09  7.8763e-02  2.0253e-01  1.7656e-01  2.7286e-02  9.9993e-01  4.9992e-01  0:10:59   70

 absolute pressure limited to 5.000000e+10 in 392407 cells on zone 988 

 turbulent viscosity limited to viscosity ratio of 1.000000e+05 in 388472 cells 
   431  1.1847e+09  7.5107e-02  1.8979e-01  1.7645e-01  2.7400e-02  9.9964e-01  4.9980e-01  0:10:50   69

 absolute pressure limited to 5.000000e+10 in 392418 cells on zone 988 

 turbulent viscosity limited to viscosity ratio of 1.000000e+05 in 388557 cells 
   432  1.1872e+09  7.4351e-02  1.8921e-01  1.7144e-01  2.5629e-02  9.9825e-01  4.9946e-01  0:10:41   68

 absolute pressure limited to 5.000000e+10 in 392407 cells on zone 988 

 turbulent viscosity limited to viscosity ratio of 1.000000e+05 in 388449 cells 
   433  1.1384e+09  7.3905e-02  1.8671e-01  1.7437e-01  2.5685e-02  9.9409e-01  4.9883e-01  0:10:30   67

 absolute pressure limited to 5.000000e+10 in 392402 cells on zone 988 

 turbulent viscosity limited to viscosity ratio of 1.000000e+05 in 388562 cells 
   434  1.0591e+09  7.1174e-02  1.8374e-01  1.8208e-01  2.6882e-02  9.8789e-01  4.9829e-01  0:10:19   66

 absolute pressure limited to 5.000000e+10 in 392426 cells on zone 988 

 turbulent viscosity limited to viscosity ratio of 1.000000e+05 in 388470 cells 
   435  1.1169e+09  7.7471e-02  1.9691e-01  1.9619e-01  2.7182e-02  9.8157e-01  4.9632e-01  0:10:10   65

 absolute pressure limited to 5.000000e+10 in 392410 cells on zone 988 

 turbulent viscosity limited to viscosity ratio of 1.000000e+05 in 388599 cells 
   436  1.1311e+09  7.8209e-02  2.0133e-01  1.9420e-01  2.8081e-02  9.8938e-01  4.9485e-01  0:09:58   64

 absolute pressure limited to 5.000000e+10 in 392421 cells on zone 988 

 turbulent viscosity limited to viscosity ratio of 1.000000e+05 in 388517 cells 
   437  1.0909e+09  7.7023e-02  1.9819e-01  2.0398e-01  2.7651e-02  9.7965e-01  4.9153e-01  0:09:50   63

 absolute pressure limited to 5.000000e+10 in 392412 cells on zone 988 

 turbulent viscosity limited to viscosity ratio of 1.000000e+05 in 388561 cells 
   438  1.1402e+09  7.8977e-02  2.0368e-01  1.9755e-01  2.6895e-02  9.9554e-01  4.9561e-01  0:09:41   62

 absolute pressure limited to 5.000000e+10 in 392404 cells on zone 988 

 turbulent viscosity limited to viscosity ratio of 1.000000e+05 in 388491 cells 
   439  1.1453e+09  7.8112e-02  2.0526e-01  1.9713e-01  2.6707e-02  9.9465e-01  4.9507e-01  0:09:33   61

 absolute pressure limited to 5.000000e+10 in 392406 cells on zone 988 

 turbulent viscosity limited to viscosity ratio of 1.000000e+05 in 388562 cells 
   440  1.1170e+09  7.7871e-02  1.9951e-01  1.9011e-01  2.8217e-02  9.8764e-01  4.9157e-01  0:09:25   60

 absolute pressure limited to 5.000000e+10 in 392411 cells on zone 988 

 turbulent viscosity limited to viscosity ratio of 1.000000e+05 in 388396 cells 

  iter  continuity  x-velocity  y-velocity  z-velocity      energy           k       omega     time/iter
   441  1.1080e+09  7.7805e-02  1.9868e-01  1.8746e-01  2.9950e-02  9.7277e-01  4.8493e-01  0:09:17   59

 absolute pressure limited to 5.000000e+10 in 392398 cells on zone 988 

 turbulent viscosity limited to viscosity ratio of 1.000000e+05 in 388603 cells 
   442  1.0756e+09  7.7299e-02  2.0130e-01  1.8241e-01  3.1791e-02  9.9791e-01  4.9764e-01  0:09:07   58

 absolute pressure limited to 5.000000e+10 in 392420 cells on zone 988 

 turbulent viscosity limited to viscosity ratio of 1.000000e+05 in 388520 cells 
   443  1.1121e+09  8.1064e-02  2.0786e-01  1.8886e-01  3.0889e-02  9.8854e-01  4.9417e-01  0:08:57   57

 absolute pressure limited to 5.000000e+10 in 392412 cells on zone 988 

 turbulent viscosity limited to viscosity ratio of 1.000000e+05 in 388601 cells 
   444  1.1727e+09  8.5708e-02  2.1328e-01  1.8486e-01  2.8911e-02  9.8823e-01  4.9255e-01  0:08:46   56

 absolute pressure limited to 5.000000e+10 in 392392 cells on zone 988 

 turbulent viscosity limited to viscosity ratio of 1.000000e+05 in 388516 cells 
   445  1.0871e+09  7.9945e-02  2.0783e-01  1.8501e-01  2.7835e-02  9.9410e-01  4.9431e-01  0:08:34   55

 absolute pressure limited to 5.000000e+10 in 392431 cells on zone 988 

 turbulent viscosity limited to viscosity ratio of 1.000000e+05 in 388561 cells 
   446  1.1119e+09  7.7884e-02  2.0175e-01  1.8568e-01  2.6614e-02  9.9207e-01  4.9422e-01  0:08:24   54

 absolute pressure limited to 5.000000e+10 in 392412 cells on zone 988 

 turbulent viscosity limited to viscosity ratio of 1.000000e+05 in 388462 cells 
   447  1.1403e+09  7.7740e-02  2.0099e-01  1.8488e-01  2.5611e-02  9.9747e-01  4.9792e-01  0:08:15   53

 absolute pressure limited to 5.000000e+10 in 392410 cells on zone 988 

 turbulent viscosity limited to viscosity ratio of 1.000000e+05 in 388544 cells 
   448  1.0970e+09  7.8854e-02  2.0021e-01  1.8055e-01  2.6513e-02  9.9441e-01  4.9644e-01  0:08:05   52

 absolute pressure limited to 5.000000e+10 in 392422 cells on zone 988 

 turbulent viscosity limited to viscosity ratio of 1.000000e+05 in 388367 cells 
   449  1.1365e+09  7.7405e-02  1.9224e-01  1.8102e-01  2.7326e-02  9.9802e-01  4.9808e-01  0:07:56   51

 absolute pressure limited to 5.000000e+10 in 392390 cells on zone 988 

 turbulent viscosity limited to viscosity ratio of 1.000000e+05 in 388532 cells 
   450  1.0932e+09  7.5321e-02  1.9174e-01  1.7820e-01  2.7457e-02  9.9552e-01  4.9692e-01  0:07:48   50

 absolute pressure limited to 5.000000e+10 in 392410 cells on zone 988 

 turbulent viscosity limited to viscosity ratio of 1.000000e+05 in 388310 cells 
   451  1.0922e+09  7.5131e-02  1.8680e-01  1.8105e-01  2.7157e-02  9.8946e-01  4.9476e-01  0:07:38   49

 absolute pressure limited to 5.000000e+10 in 392413 cells on zone 988 

 turbulent viscosity limited to viscosity ratio of 1.000000e+05 in 388532 cells 

  iter  continuity  x-velocity  y-velocity  z-velocity      energy           k       omega     time/iter
   452  1.0785e+09  7.8482e-02  1.9741e-01  1.8471e-01  2.7226e-02  9.9124e-01  4.9382e-01  0:07:28   48

 absolute pressure limited to 5.000000e+10 in 392414 cells on zone 988 

 turbulent viscosity limited to viscosity ratio of 1.000000e+05 in 388269 cells 
   453  1.0487e+09  7.5862e-02  1.9003e-01  1.9270e-01  2.7567e-02  9.8678e-01  4.9151e-01  0:07:18   47

 absolute pressure limited to 5.000000e+10 in 392407 cells on zone 988 

 turbulent viscosity limited to viscosity ratio of 1.000000e+05 in 388518 cells 
   454  1.1067e+09  7.8803e-02  1.9418e-01  1.9731e-01  2.7762e-02  9.8883e-01  4.8991e-01  0:07:08   46

 absolute pressure limited to 5.000000e+10 in 392416 cells on zone 988 

 turbulent viscosity limited to viscosity ratio of 1.000000e+05 in 388185 cells 
   455  1.1142e+09  7.9221e-02  1.9710e-01  1.8555e-01  2.6871e-02  9.9897e-01  4.9873e-01  0:06:58   45

 absolute pressure limited to 5.000000e+10 in 392414 cells on zone 988 

 turbulent viscosity limited to viscosity ratio of 1.000000e+05 in 388430 cells 
   456  1.0896e+09  7.6611e-02  1.9367e-01  1.8223e-01  2.6396e-02  9.9985e-01  4.9983e-01  0:06:49   44

 absolute pressure limited to 5.000000e+10 in 392414 cells on zone 988 

 turbulent viscosity limited to viscosity ratio of 1.000000e+05 in 388223 cells 
   457  1.0839e+09  7.4462e-02  1.8991e-01  1.8292e-01  2.5591e-02  9.9896e-01  4.9950e-01  0:06:41   43

 absolute pressure limited to 5.000000e+10 in 392417 cells on zone 988 

 turbulent viscosity limited to viscosity ratio of 1.000000e+05 in 388488 cells 
   458  1.0998e+09  7.2248e-02  1.8239e-01  1.7765e-01  2.6797e-02  9.9599e-01  4.9887e-01  0:06:32   42

 absolute pressure limited to 5.000000e+10 in 392412 cells on zone 988 

 turbulent viscosity limited to viscosity ratio of 1.000000e+05 in 388223 cells 
   459  1.0943e+09  7.1124e-02  1.7621e-01  1.7357e-01  2.6272e-02  9.9428e-01  4.9777e-01  0:06:23   41

 absolute pressure limited to 5.000000e+10 in 392400 cells on zone 988 

 turbulent viscosity limited to viscosity ratio of 1.000000e+05 in 388440 cells 
   460  1.0183e+09  7.3377e-02  1.8054e-01  1.6740e-01  2.6125e-02  9.8661e-01  4.9619e-01  0:06:14   40

 absolute pressure limited to 5.000000e+10 in 392418 cells on zone 988 

 turbulent viscosity limited to viscosity ratio of 1.000000e+05 in 388239 cells 
   461  1.0186e+09  7.2478e-02  1.8108e-01  1.7053e-01  2.5881e-02  9.9875e-01  4.9878e-01  0:06:05   39

 absolute pressure limited to 5.000000e+10 in 392411 cells on zone 988 

 turbulent viscosity limited to viscosity ratio of 1.000000e+05 in 388424 cells 
   462  1.0385e+09  7.5460e-02  1.8399e-01  1.7558e-01  2.5894e-02  9.9555e-01  4.9810e-01  0:05:55   38

 absolute pressure limited to 5.000000e+10 in 392410 cells on zone 988 

 turbulent viscosity limited to viscosity ratio of 1.000000e+05 in 388337 cells 

  iter  continuity  x-velocity  y-velocity  z-velocity      energy           k       omega     time/iter
   463  1.0201e+09  7.4507e-02  1.8161e-01  1.9014e-01  2.6044e-02  9.8944e-01  4.9621e-01  0:05:45   37

 absolute pressure limited to 5.000000e+10 in 392406 cells on zone 988 

 turbulent viscosity limited to viscosity ratio of 1.000000e+05 in 388475 cells 
   464  1.0060e+09  7.6292e-02  1.8774e-01  1.8684e-01  2.5500e-02  9.9835e-01  4.9819e-01  0:05:34   36

 absolute pressure limited to 5.000000e+10 in 392407 cells on zone 988 

 turbulent viscosity limited to viscosity ratio of 1.000000e+05 in 388371 cells 
   465  1.0106e+09  7.5774e-02  1.8850e-01  1.8830e-01  2.4975e-02  9.9316e-01  4.9649e-01  0:05:24   35

 absolute pressure limited to 5.000000e+10 in 392423 cells on zone 988 

 turbulent viscosity limited to viscosity ratio of 1.000000e+05 in 388416 cells 
   466  1.0197e+09  7.4821e-02  1.8982e-01  1.9608e-01  2.4972e-02  9.9673e-01  4.9722e-01  0:05:15   34

 absolute pressure limited to 5.000000e+10 in 392414 cells on zone 988 

 turbulent viscosity limited to viscosity ratio of 1.000000e+05 in 388279 cells 
   467  1.0310e+09  7.6282e-02  1.9376e-01  1.9133e-01  2.5654e-02  9.9059e-01  4.9541e-01  0:05:06   33

 absolute pressure limited to 5.000000e+10 in 392404 cells on zone 988 

 turbulent viscosity limited to viscosity ratio of 1.000000e+05 in 388377 cells 
   468  1.0184e+09  7.4275e-02  1.9375e-01  1.9669e-01  2.6127e-02  9.9357e-01  4.9473e-01  0:04:57   32

 absolute pressure limited to 5.000000e+10 in 392411 cells on zone 988 

 turbulent viscosity limited to viscosity ratio of 1.000000e+05 in 388180 cells 
   469  1.0138e+09  7.9435e-02  2.0256e-01  1.8591e-01  2.7029e-02  9.9037e-01  4.9316e-01  0:04:49   31

 absolute pressure limited to 5.000000e+10 in 392399 cells on zone 988 

 turbulent viscosity limited to viscosity ratio of 1.000000e+05 in 388483 cells 
   470  1.0023e+09  7.9332e-02  1.9792e-01  1.9779e-01  2.7218e-02  9.9677e-01  4.9690e-01  0:04:40   30

 absolute pressure limited to 5.000000e+10 in 392407 cells on zone 988 

 turbulent viscosity limited to viscosity ratio of 1.000000e+05 in 388351 cells 
   471  1.0137e+09  7.8927e-02  1.9688e-01  2.0181e-01  2.6432e-02  9.9606e-01  4.9692e-01  0:04:31   29

 absolute pressure limited to 5.000000e+10 in 392428 cells on zone 988 

 turbulent viscosity limited to viscosity ratio of 1.000000e+05 in 388489 cells 
   472  1.0565e+09  8.0324e-02  2.0099e-01  1.9724e-01  2.5344e-02  9.8542e-01  4.9238e-01  0:04:21   28

 absolute pressure limited to 5.000000e+10 in 392395 cells on zone 988 

 turbulent viscosity limited to viscosity ratio of 1.000000e+05 in 388343 cells 
   473  1.0282e+09  7.5159e-02  1.9138e-01  1.8976e-01  2.3863e-02  9.6624e-01  4.8379e-01  0:04:11   27

 absolute pressure limited to 5.000000e+10 in 392414 cells on zone 988 

 turbulent viscosity limited to viscosity ratio of 1.000000e+05 in 388502 cells 

  iter  continuity  x-velocity  y-velocity  z-velocity      energy           k       omega     time/iter
   474  9.9691e+08  7.2160e-02  1.8670e-01  1.8127e-01  2.4209e-02  9.9387e-01  4.9449e-01  0:04:02   26

 absolute pressure limited to 5.000000e+10 in 392418 cells on zone 988 

 turbulent viscosity limited to viscosity ratio of 1.000000e+05 in 388277 cells 
   475  1.0015e+09  7.3974e-02  1.9273e-01  1.8111e-01  2.4203e-02  9.9263e-01  4.9471e-01  0:03:52   25

 absolute pressure limited to 5.000000e+10 in 392411 cells on zone 988 

 turbulent viscosity limited to viscosity ratio of 1.000000e+05 in 388443 cells 
   476  9.6351e+08  7.1758e-02  1.8573e-01  1.8893e-01  2.4710e-02  9.8760e-01  4.9230e-01  0:03:42   24

 absolute pressure limited to 5.000000e+10 in 392409 cells on zone 988 

 turbulent viscosity limited to viscosity ratio of 1.000000e+05 in 388243 cells 
   477  9.5897e+08  7.4940e-02  1.9130e-01  1.9578e-01  2.6306e-02  9.8394e-01  4.8990e-01  0:03:32   23

 absolute pressure limited to 5.000000e+10 in 392405 cells on zone 988 

 turbulent viscosity limited to viscosity ratio of 1.000000e+05 in 388456 cells 
   478  9.6908e+08  7.4715e-02  1.9137e-01  2.0522e-01  2.5485e-02  9.9349e-01  4.9433e-01  0:03:23   22

 absolute pressure limited to 5.000000e+10 in 392406 cells on zone 988 

 turbulent viscosity limited to viscosity ratio of 1.000000e+05 in 388311 cells 
   479  9.9135e+08  7.7566e-02  1.9261e-01  2.0150e-01  2.6993e-02  9.7887e-01  4.8888e-01  0:03:14   21

 absolute pressure limited to 5.000000e+10 in 392409 cells on zone 988 

 turbulent viscosity limited to viscosity ratio of 1.000000e+05 in 388571 cells 
   480  1.0016e+09  7.7884e-02  1.9765e-01  1.9770e-01  2.5305e-02  9.8991e-01  4.9114e-01  0:03:05   20

 absolute pressure limited to 5.000000e+10 in 392427 cells on zone 988 

 turbulent viscosity limited to viscosity ratio of 1.000000e+05 in 388539 cells 
   481  9.9797e+08  7.2891e-02  1.8852e-01  2.0135e-01  2.6510e-02  9.9062e-01  4.9162e-01  0:02:56   19

 absolute pressure limited to 5.000000e+10 in 392399 cells on zone 988 

 turbulent viscosity limited to viscosity ratio of 1.000000e+05 in 388574 cells 
   482  9.8791e+08  7.4755e-02  1.9106e-01  2.0289e-01  2.6074e-02  9.9048e-01  4.9208e-01  0:02:47   18

 absolute pressure limited to 5.000000e+10 in 392414 cells on zone 988 

 turbulent viscosity limited to viscosity ratio of 1.000000e+05 in 388512 cells 
   483  9.6321e+08  7.5525e-02  1.9699e-01  2.0419e-01  2.5281e-02  9.7985e-01  4.8783e-01  0:02:38   17

 absolute pressure limited to 5.000000e+10 in 392409 cells on zone 988 

 turbulent viscosity limited to viscosity ratio of 1.000000e+05 in 388561 cells 
   484  9.6635e+08  7.6410e-02  1.9145e-01  1.9962e-01  2.6139e-02  9.6232e-01  4.7875e-01  0:02:29   16

 absolute pressure limited to 5.000000e+10 in 392409 cells on zone 988 

 turbulent viscosity limited to viscosity ratio of 1.000000e+05 in 388490 cells 

  iter  continuity  x-velocity  y-velocity  z-velocity      energy           k       omega     time/iter
   485  9.9157e+08  7.3071e-02  1.8960e-01  2.0316e-01  2.7595e-02  9.9377e-01  4.9312e-01  0:02:19   15

 absolute pressure limited to 5.000000e+10 in 392402 cells on zone 988 

 turbulent viscosity limited to viscosity ratio of 1.000000e+05 in 388541 cells 
   486  9.7700e+08  7.3938e-02  1.8752e-01  1.9770e-01  2.6564e-02  9.9786e-01  4.9803e-01  0:02:10   14

 absolute pressure limited to 5.000000e+10 in 392411 cells on zone 988 

 turbulent viscosity limited to viscosity ratio of 1.000000e+05 in 388373 cells 
   487  9.4510e+08  7.2722e-02  1.7915e-01  1.9185e-01  3.0157e-02  9.9333e-01  4.9602e-01  0:02:01   13

 absolute pressure limited to 5.000000e+10 in 392424 cells on zone 988 

 turbulent viscosity limited to viscosity ratio of 1.000000e+05 in 388457 cells 
   488  9.5080e+08  7.6013e-02  1.8795e-01  1.9117e-01  2.7161e-02  9.9131e-01  4.9457e-01  0:01:52   12

 absolute pressure limited to 5.000000e+10 in 392411 cells on zone 988 

 turbulent viscosity limited to viscosity ratio of 1.000000e+05 in 388332 cells 
   489  9.5994e+08  7.8635e-02  1.9537e-01  1.8807e-01  2.6828e-02  9.9178e-01  4.9335e-01  0:01:42   11

 absolute pressure limited to 5.000000e+10 in 392410 cells on zone 988 

 turbulent viscosity limited to viscosity ratio of 1.000000e+05 in 388429 cells 
   490  9.6198e+08  7.7830e-02  1.8980e-01  1.8178e-01  2.5936e-02  9.7595e-01  4.8836e-01  0:01:33   10

 absolute pressure limited to 5.000000e+10 in 392401 cells on zone 988 

 turbulent viscosity limited to viscosity ratio of 1.000000e+05 in 388381 cells 
   491  9.3372e+08  7.1879e-02  1.8124e-01  1.8207e-01  2.5723e-02  9.9900e-01  4.9887e-01  0:01:23    9

 absolute pressure limited to 5.000000e+10 in 392420 cells on zone 988 

 turbulent viscosity limited to viscosity ratio of 1.000000e+05 in 388479 cells 
   492  9.2695e+08  7.3389e-02  1.8405e-01  1.8493e-01  2.6103e-02  9.9689e-01  4.9810e-01  0:01:14    8

 absolute pressure limited to 5.000000e+10 in 392432 cells on zone 988 

 turbulent viscosity limited to viscosity ratio of 1.000000e+05 in 388332 cells 
   493  9.5909e+08  7.3484e-02  1.8158e-01  1.8785e-01  2.4638e-02  9.8682e-01  4.9594e-01  0:01:05    7

 absolute pressure limited to 5.000000e+10 in 392400 cells on zone 988 

 turbulent viscosity limited to viscosity ratio of 1.000000e+05 in 388414 cells 
   494  9.2975e+08  7.2519e-02  1.7946e-01  1.8812e-01  2.6076e-02  9.8176e-01  4.9212e-01  0:00:55    6

 absolute pressure limited to 5.000000e+10 in 392423 cells on zone 988 

 turbulent viscosity limited to viscosity ratio of 1.000000e+05 in 388338 cells 
   495  9.1252e+08  7.2744e-02  1.8433e-01  1.8590e-01  2.7241e-02  9.6198e-01  4.8504e-01  0:00:46    5

 absolute pressure limited to 5.000000e+10 in 392424 cells on zone 988 

 turbulent viscosity limited to viscosity ratio of 1.000000e+05 in 388442 cells 

  iter  continuity  x-velocity  y-velocity  z-velocity      energy           k       omega     time/iter
   496  9.2348e+08  7.6278e-02  1.9027e-01  1.8703e-01  2.5949e-02  9.8841e-01  4.9082e-01  0:00:37    4

 absolute pressure limited to 5.000000e+10 in 392408 cells on zone 988 

 turbulent viscosity limited to viscosity ratio of 1.000000e+05 in 388417 cells 
   497  9.0082e+08  7.4425e-02  1.9011e-01  2.0225e-01  2.5659e-02  9.8891e-01  4.8973e-01  0:00:28    3

 absolute pressure limited to 5.000000e+10 in 392410 cells on zone 988 

 turbulent viscosity limited to viscosity ratio of 1.000000e+05 in 388455 cells 
   498  9.1831e+08  7.8263e-02  1.9420e-01  2.0179e-01  2.5660e-02  9.8120e-01  4.8548e-01  0:00:19    2

 absolute pressure limited to 5.000000e+10 in 392424 cells on zone 988 

 turbulent viscosity limited to viscosity ratio of 1.000000e+05 in 388393 cells 
   499  9.3003e+08  7.6896e-02  1.9451e-01  1.9428e-01  2.5425e-02  9.8063e-01  4.8542e-01  0:00:09    1

 absolute pressure limited to 5.000000e+10 in 392404 cells on zone 988 

 turbulent viscosity limited to viscosity ratio of 1.000000e+05 in 388496 cells 
   500  9.0532e+08  7.9317e-02  1.9647e-01  1.9449e-01  2.7910e-02  9.8404e-01  4.8771e-01  0:00:00    0

> Halting due to end of file on input.
Auto-Transcript Stop Time:  01:50:15, 07 Jan 2025 
Total Transcript Time: 1 Hour 21 Minute 46 Second.

Automatic transcript closed.
