/opt/crc/a/ansys/2024R1/v241/fluent/fluent24.1.0/bin/fluent -r24.1.0 3ddp -t4 -g
/opt/crc/a/ansys/2024R1/v241/fluent/fluent24.1.0/cortex/lnamd64/cortex.24.1.0 -f fluent -g (fluent "3ddp -pshmem  -host -r24.1.0 -t4 -mpi=intel -path/opt/crc/a/ansys/2024R1/v241/fluent -ssh")

Opening input/output transcript to file "/tmp/1069274.1.long/worker-241760-238551/task.2/fluent-20250107-204515-238969.trn".
Auto-Transcript Start Time:  20:45:15, 07 Jan 2025 
/opt/crc/a/ansys/2024R1/v241/fluent/fluent24.1.0/bin/fluent -r24.1.0 3ddp -pshmem -host -t4 -mpi=intel -path/opt/crc/a/ansys/2024R1/v241/fluent -ssh -cx d32cepyc213.crc.nd.edu:46493:33415
Starting /opt/crc/a/ansys/2024R1/v241/fluent/fluent24.1.0/lnamd64/3ddp_host/fluent.24.1.0 host -cx d32cepyc213.crc.nd.edu:46493:33415 "(list (rpsetvar (QUOTE parallel/function) "fluent 3ddp -flux -node -r24.1.0 -t4 -pshmem -mpi=intel -ssh") (rpsetvar (QUOTE parallel/rhost) "") (rpsetvar (QUOTE parallel/ruser) "") (rpsetvar (QUOTE parallel/nprocs_string) "4") (rpsetvar (QUOTE parallel/auto-spawn?) #t) (rpsetvar (QUOTE parallel/trace-level) 0) (rpsetvar (QUOTE parallel/remote-shell) 1) (rpsetvar (QUOTE parallel/path) "/opt/crc/a/ansys/2024R1/v241/fluent") (rpsetvar (QUOTE parallel/hostsfile) "") (rpsetvar (QUOTE gpuapp/devices) ""))"

              Welcome to ANSYS Fluent 2024 R1

              Copyright 1987-2024 ANSYS, Inc. All Rights Reserved.
              Unauthorized use, distribution or duplication is prohibited.
              This product is subject to U.S. laws governing export and re-export.
              For full Legal Notice, see documentation.

Build Time: Nov 22 2023 10:07:25 EST  Build Id: 10184  
 
Connected License Server List:	7504@linux5-lic.crc.nd.edu

     --------------------------------------------------------------
     This is an academic version of ANSYS FLUENT. Usage of this product
     license is limited to the terms and conditions specified in your ANSYS
     license form, additional terms section.
     --------------------------------------------------------------
Host spawning Node 0 on machine "d32cepyc213.crc.nd.edu" (unix).
/opt/crc/a/ansys/2024R1/v241/fluent/fluent24.1.0/bin/fluent -r24.1.0 3ddp -flux -node -t4 -pshmem -mpi=intel -ssh -mport 10.32.91.193:10.32.91.193:36555:0
Starting /opt/crc/a/ansys/2024R1/v241/fluent/fluent24.1.0/multiport/mpi/lnamd64/intel2021/bin/mpirun --rsh=ssh -f /tmp/fluent-appfile.etracey.240560 -genv I_MPI_FABRICS shm -genv FLUENT_ARCH lnamd64 -genv I_MPI_DEBUG 0 -genv I_MPI_ADJUST_GATHERV 3 -genv I_MPI_ADJUST_ALLREDUCE 2 -genv I_MPI_PLATFORM auto -genv PYTHONHOME /opt/crc/a/ansys/2024R1/v241/fluent/fluent24.1.0/../../commonfiles/CPython/3_10/linx64/Release/python -genv FLUENT_PROD_DIR /opt/crc/a/ansys/2024R1/v241/fluent/fluent24.1.0 -genv FLUENT_AFFINITY 0 -genv I_MPI_PIN enable -genv KMP_AFFINITY disabled -n 4 /opt/crc/a/ansys/2024R1/v241/fluent/fluent24.1.0/lnamd64/3ddp_node/fluent_mpi.24.1.0 node -mpiw intel -pic shmem -mport 10.32.91.193:10.32.91.193:36555:0

----------------------------------------------------------------------------------
ID    Hostname              Core  O.S.      PID            Vendor                
----------------------------------------------------------------------------------
n0-3  d32cepyc213.crc.nd.e  4/64  Linux-64  240798-240801  AMD EPYC 7543 32-Core 
host  d32cepyc213.crc.nd.e        Linux-64  239757         AMD EPYC 7543 32-Core 

MPI Option Selected: intel
Selected system interconnect: shared-memory
----------------------------------------------------------------------------------


Initializing SGE
Done.
Cleanup script file is /tmp/1069274.1.long/worker-241760-238551/task.2/cleanup-fluent-d32cepyc213.crc.nd.edu-239757.sh
Key Behavioral Changes:
Fluent Guided Meshing Workflows: 
Workflow template files (.wft) are now saved by default whenever the mesh is saved. You can change the automatic creation of .wft files in Preferences. 
Journaling: 
When Ansys Fluent encounters an invalid input in a journal file that is being replayed, it now raises an error condition and aborts the journal processing. 
Turbulence: 
The value of kappa used in the Spalart-Allmaras model for interior terms was inconsistent with the reference publications of the model. Fluent historically used a value of 0.4187, but to produce results consistent with the published model, the value should be 0.41. This issue was first addressed in a previous Fluent version and access to the kappa value was given in the GUI while keeping the old default of 0.4187. In Fluent 2024 R1, the default value is now changed to 0.41. 
Turbomachinery: 
For Blade Film Cooling, you can now specify stationary holes on the surfaces of a moving/rotating cell zone in transient cases. 
Boundaries previously referred to as "casings" in the Turbo Topology definition are now referred to as "shrouds." 
Density-Based Solver: 
The High Speed Numerics have been updated to increase the robustness of the Roe-FDS numerical flux against shock-instabilities and the carbuncle phenomenon. This modification may produce a slight solution change for cases combining Roe-FDS and HSN. 
Multiphase Models: 
Modeling of open channel flows in conjunction with the translation moving reference frame (MRF) has been improved resulting in more accurate and stable solution. In addition, a solution methodology has been suggested to provide better stability for high-speed hull simulations. 
Parallel Processing: 
Using dynamic process spawning now requires that you manually specify the interconnect as -pethernet for shared memory or distributed memory without InfiniBand, and -pib.ofed for distributed memory over InfiniBand. 
Refer to the Ansys, Inc. Release Notes for a full listing of the new features included in Ansys Fluent 2024 R1. 
> Fast-loading "/opt/crc/a/ansys/2024R1/v241/fluent/fluent24.1.0/addons/afd/lib/hdfio.bin"
Done.

Reading from d32cepyc213.crc.nd.edu:"/tmp/1069274.1.long/worker-241760-238551/task.2/case.cas.h5" in NODE0 mode ...
  Reading mesh ...
      421271 cells,     1 cell zone  ...
         421271 polyhedra cells,  zone id: 1386
     2389129 faces,     5 face zones ...
            140 polygonal pressure-far-field faces,  zone id: 17
            143 polygonal pressure-far-field faces,  zone id: 18
           2146 polygonal pressure-far-field faces,  zone id: 19
          53062 polygonal wall faces,  zone id: 20
        2333638 polygonal interior faces,  zone id: 1385
     1712407 nodes,     1 node zone  ...
  Done.


Building...
     mesh
	auto partitioning mesh by Metis (fast),
	distributing mesh
		parts....,
		faces....,
		nodes....,
		cells....,
        bandwidth reduction using Reverse Cuthill-McKee: 105091/6604 = 15.9132
  Reading boundary layer flags ...
  Done.

     materials,
     interface,
     domains,
	mixture
     zones,
	inlet
	outlet
	farfield
	launchvehicle
	interior--solid
	solid
     parallel,
Done.
Warning: Pressure far-field boundary condition can only be used with ideal gas law.
  Please change either the boundary condition type or enable ideal gas law.
  Solver cannot proceed until this is fixed.
	Warning: Pressure far-field boundary condition can only be used with ideal gas law.
  Please change either the boundary condition type or enable ideal gas law.
  Solver cannot proceed until this is fixed.
	
> adjoint/                parallel/               server/
define/                 parametric-study/       solve/
display/                plot/                   surface/
exit                    preferences/            turbo-workflow/
file/                   print-license-usage     views/
mesh/                   report/

> air is a fluid

Density
no data required.


Note: Enabling energy equation as required by material density method.

> adjoint/                parallel/               server/
define/                 parametric-study/       solve/
display/                plot/                   surface/
exit                    preferences/            turbo-workflow/
file/                   print-license-usage     views/
mesh/                   report/

> 
> adjoint/                parallel/               server/
define/                 parametric-study/       solve/
display/                plot/                   surface/
exit                    preferences/            turbo-workflow/
file/                   print-license-usage     views/
mesh/                   report/

> 
> adjoint/                parallel/               server/
define/                 parametric-study/       solve/
display/                plot/                   surface/
exit                    preferences/            turbo-workflow/
file/                   print-license-usage     views/
mesh/                   report/

> (farfield outlet inlet)

> (farfield outlet inlet)

> (farfield outlet inlet)

> adjoint/                parallel/               server/
define/                 parametric-study/       solve/
display/                plot/                   surface/
exit                    preferences/            turbo-workflow/
file/                   print-license-usage     views/
mesh/                   report/

> (launchvehicle)

> adjoint/                parallel/               server/
define/                 parametric-study/       solve/
display/                plot/                   surface/
exit                    preferences/            turbo-workflow/
file/                   print-license-usage     views/
mesh/                   report/

> 
> 
> 
> 
> 
> 
> adjoint/                parallel/               server/
define/                 parametric-study/       solve/
display/                plot/                   surface/
exit                    preferences/            turbo-workflow/
file/                   print-license-usage     views/
mesh/                   report/

> 
> 
> 
> adjoint/                parallel/               server/
define/                 parametric-study/       solve/
display/                plot/                   surface/
exit                    preferences/            turbo-workflow/
file/                   print-license-usage     views/
mesh/                   report/

> 
> 
> 
> adjoint/                parallel/               server/
define/                 parametric-study/       solve/
display/                plot/                   surface/
exit                    preferences/            turbo-workflow/
file/                   print-license-usage     views/
mesh/                   report/

> 
> adjoint/                parallel/               server/
define/                 parametric-study/       solve/
display/                plot/                   surface/
exit                    preferences/            turbo-workflow/
file/                   print-license-usage     views/
mesh/                   report/

> 
Initialize using the hybrid initialization method.

Checking case topology... 
-This case has multiple farfield bc 
-Case will be initialized with constant parameters

	iter		scalar-0

	1		1.000000e+00
	2		1.573199e-04
	3		2.407156e-05
	4		4.890817e-06
	5		1.279791e-06
	6		4.121838e-07
	7		1.853809e-07
	8		8.898512e-08
	9		6.208733e-08
	10		3.572880e-08

Hybrid initialization is done.

Note: Settings to improve the robustness of pathline and
      particle tracking have been automatically enabled.


> 
  iter  continuity  x-velocity  y-velocity  z-velocity      energy           k       omega     time/iter
     1  1.0000e+00  9.6940e-05  1.7218e-04  1.4374e-04  4.4832e-07  7.0506e-01  4.0740e-01  0:25:13  499
     2  8.0024e-01  9.0829e-05  1.0167e-04  8.9734e-05  3.7842e-07  5.8769e-01  3.6662e-01  0:25:02  498
     3  7.8046e-01  1.0264e-04  7.1842e-05  6.5810e-05  3.2880e-07  4.4932e-01  3.1547e-01  0:24:15  497
     4  1.0000e+00  1.4826e-04  4.9481e-05  4.8298e-05  4.3723e-07  2.6951e-01  2.5569e-01  0:23:34  496
     5  1.0000e+00  2.9045e-04  5.0817e-05  5.2482e-05  7.0541e-07  1.1773e-01  1.9891e-01  0:23:35  495
     6  2.4567e+00  6.9054e-04  7.8192e-05  7.6178e-05  2.6206e-06  1.6992e-01  1.4834e-01  0:26:07  494
     7  5.3589e+00  1.9883e-03  1.5982e-04  1.6350e-04  3.3747e-06  1.4005e-01  1.1840e-01  0:25:31  493
     8  2.4097e+01  4.5980e-03  5.4283e-04  5.3648e-04  1.4683e-04  2.5113e+00  8.9914e-01  0:26:05  492
     9  2.9652e+01  2.5828e-02  4.9139e-03  5.1149e-03  1.2437e-04  7.1228e-01  3.8466e-01  0:24:58  491
    10  2.7263e+01  2.1454e-02  7.2680e-03  7.3174e-03  9.5160e-05  4.0490e-01  3.0344e-01  0:24:06  490
    11  2.6972e+01  1.2697e-02  2.9879e-03  3.0904e-03  1.5028e-03  1.1444e+00  5.8464e-01  0:23:21  489

  iter  continuity  x-velocity  y-velocity  z-velocity      energy           k       omega     time/iter
    12  5.1515e+01  5.8020e-02  1.1677e-02  1.2855e-02  3.0859e-04  6.8027e-01  3.8715e-01  0:22:46  488
    13  3.1374e+01  3.7113e-02  5.9084e-03  7.2681e-03  6.8599e-04  7.2162e-01  4.8787e-01  0:22:16  487
    14  4.4619e+01  5.7148e-02  7.3687e-03  8.4240e-03  7.4583e-04  5.6399e-01  3.4666e-01  0:21:54  486
    15  4.8061e+01  4.8912e-02  7.6738e-03  8.0555e-03  1.9906e-03  5.5920e-01  4.5247e-01  0:21:33  485
    16  4.8162e+01  7.7813e-02  1.0951e-02  1.1735e-02  1.1398e-03  4.6964e-01  3.3926e-01  0:21:18  484
    17  5.6757e+01  6.7521e-02  1.1566e-02  1.2141e-02  1.2896e-03  6.4230e-01  4.5112e-01  0:21:06  483
    18  5.7680e+01  6.8281e-02  1.3361e-02  1.4701e-02  1.2686e-03  4.7820e-01  3.4994e-01  0:20:56  482
    19  7.6549e+01  6.6056e-02  1.0815e-02  1.1201e-02  1.6064e-03  6.7845e-01  5.0708e-01  0:21:24  481
    20  7.4758e+01  8.2836e-02  1.4561e-02  1.7349e-02  2.0256e-03  5.2705e-01  3.5974e-01  0:21:08  480
    21  7.9785e+01  7.9889e-02  1.5500e-02  1.3979e-02  1.4190e-03  4.8587e-01  3.5919e-01  0:20:57  479
    22  8.9321e+01  5.4615e-02  1.1149e-02  1.2852e-02  1.5558e-03  3.8330e-01  3.1477e-01  0:20:49  478

  iter  continuity  x-velocity  y-velocity  z-velocity      energy           k       omega     time/iter
    23  9.6503e+01  5.7398e-02  1.0196e-02  1.2049e-02  1.4216e-03  3.8000e-01  3.3615e-01  0:20:43  477
    24  1.0200e+02  4.5671e-02  8.6193e-03  9.0048e-03  1.6706e-03  3.0678e-01  2.9674e-01  0:20:38  476
    25  1.0139e+02  4.1338e-02  8.6368e-03  8.1612e-03  1.1769e-03  2.7494e-01  2.8534e-01  0:20:35  475
    26  1.2261e+02  2.8378e-02  6.2886e-03  6.7872e-03  1.3963e-03  2.6300e-01  2.8151e-01  0:20:28  474
    27  1.2402e+02  3.2515e-02  6.3659e-03  6.9249e-03  2.5366e-03  2.7027e-01  2.9111e-01  0:20:23  473
    28  1.2046e+02  3.8797e-02  7.3172e-03  7.3293e-03  1.1891e-03  2.1065e-01  2.6122e-01  0:20:15  472
    29  1.3288e+02  2.3719e-02  5.6146e-03  5.9395e-03  8.5137e-03  1.7330e-01  2.2540e-01  0:20:11  471
    30  1.4727e+02  4.9468e-02  6.7659e-03  7.3126e-03  1.0691e-02  1.9241e-01  2.8533e-01  0:19:36  470
    31  1.4042e+02  3.2643e-02  1.3847e-02  1.2882e-02  1.3364e-03  3.7353e-01  5.0360e-01  0:19:36  469
    32  1.5527e+02  2.0919e-02  6.3773e-03  6.4498e-03  1.1620e-03  7.2815e-01  4.6792e-01  0:19:35  468
    33  1.7650e+02  2.1306e-02  9.0857e-03  1.0031e-02  8.9844e-04  3.9533e-01  2.8136e-01  0:19:36  467

  iter  continuity  x-velocity  y-velocity  z-velocity      energy           k       omega     time/iter
    34  1.8334e+02  2.3214e-02  7.3759e-03  6.9672e-03  2.4391e-03  3.4036e-01  4.2615e-01  0:19:35  466
    35  1.9918e+02  3.8671e-02  1.0418e-02  9.9815e-03  1.7780e-03  4.4968e-01  3.4424e-01  0:19:34  465
    36  1.6096e+02  3.5161e-02  9.1392e-03  9.2714e-03  1.7004e-03  3.0198e-01  3.6765e-01  0:19:33  464
    37  1.9416e+02  3.1988e-02  1.2592e-02  1.1262e-02  1.3814e-03  4.1234e-01  3.9116e-01  0:19:31  463
    38  3.3308e+02  3.7122e-02  1.1051e-02  1.1708e-02  6.3642e-03  3.8331e-01  4.7674e-01  0:19:31  462
    39  2.2572e+02  7.0877e-02  1.7373e-02  1.7548e-02  2.7717e-03  3.3132e-01  3.4268e-01  0:19:28  461
    40  2.4974e+02  5.7966e-02  1.6965e-02  1.6075e-02  3.6131e-03  4.8163e-01  5.2459e-01  0:19:25  460
    41  2.7608e+02  4.7081e-02  1.6531e-02  1.7309e-02  2.9091e-03  6.4342e-01  4.3765e-01  0:19:21  459
    42  3.7314e+02  4.8423e-02  1.7269e-02  1.5941e-02  4.2456e-03  3.8441e-01  3.6102e-01  0:19:18  458
    43  2.7828e+02  5.6572e-02  1.8096e-02  1.7632e-02  4.3405e-03  5.9911e-01  5.9686e-01  0:19:14  457
    44  3.5396e+02  4.6669e-02  1.5542e-02  1.7460e-02  3.5113e-03  7.9129e-01  4.8743e-01  0:19:10  456

  iter  continuity  x-velocity  y-velocity  z-velocity      energy           k       omega     time/iter
    45  3.8808e+02  3.5889e-02  1.3765e-02  1.4092e-02  6.7387e-03  5.1836e-01  4.1837e-01  0:19:08  455
    46  3.6622e+02  4.6638e-02  1.3191e-02  1.3440e-02  4.9784e-03  2.9362e-01  3.8491e-01  0:19:04  454
    47  3.6846e+02  3.9699e-02  1.2658e-02  1.3074e-02  3.8861e-03  5.0247e-01  6.8694e-01  0:19:04  453
    48  4.0973e+02  3.0992e-02  1.2892e-02  1.3672e-02  3.2750e-03  7.9167e-01  4.7186e-01  0:19:02  452
    49  4.4867e+02  2.7425e-02  1.2311e-02  1.1292e-02  3.3905e-03  4.7800e-01  4.5580e-01  0:19:04  451
    50  4.3890e+02  2.7063e-02  1.2212e-02  1.2224e-02  3.5928e-03  2.7376e-01  4.0611e-01  0:19:04  450
    51  4.5779e+02  2.7356e-02  1.2576e-02  1.2803e-02  2.9479e-03  2.0958e-01  3.4949e-01  0:19:04  449
    52  5.0156e+02  2.0962e-02  1.2257e-02  1.2569e-02  4.0567e-03  1.6310e-01  3.0154e-01  0:19:01  448
    53  5.8792e+02  2.4472e-02  1.3561e-02  1.3053e-02  6.0907e-03  1.8001e-01  2.9824e-01  0:18:56  447
    54  6.6843e+02  3.1245e-02  1.3906e-02  1.5136e-02  6.0883e-03  2.2649e-01  3.5185e-01  0:18:24  446
    55  7.3418e+02  2.8747e-02  1.3892e-02  1.4603e-02  5.1075e-03  3.1265e-01  4.4014e-01  0:18:24  445

  iter  continuity  x-velocity  y-velocity  z-velocity      energy           k       omega     time/iter
    56  8.5137e+02  2.3111e-02  1.4761e-02  1.6412e-02  8.4811e-03  3.3934e-01  3.8248e-01  0:18:26  444
    57  9.9541e+02  2.8633e-02  1.4709e-02  1.6127e-02  7.7743e-03  3.2997e-01  3.4522e-01  0:17:58  443
    58  1.1365e+03  2.5499e-02  1.4280e-02  1.5854e-02  9.7034e-03  3.2785e-01  3.6193e-01  0:18:04  442
    59  1.3455e+03  2.5217e-02  1.5986e-02  1.6031e-02  5.3956e-03  2.9835e-01  3.0655e-01  0:17:42  441
    60  1.6413e+03  1.6319e-02  1.5263e-02  1.6090e-02  7.6279e-03  2.7767e-01  3.1427e-01  0:17:26  440
    61  2.1300e+03  1.7300e-02  1.5540e-02  1.7582e-02  8.1187e-03  2.4508e-01  3.0324e-01  0:17:10  439
    62  2.8864e+03  1.6384e-02  1.6579e-02  1.7454e-02  7.9642e-03  2.4195e-01  3.0908e-01  0:16:58  438
    63  4.1371e+03  1.3376e-02  1.7558e-02  1.8539e-02  9.2156e-03  2.4916e-01  3.3342e-01  0:16:47  437
    64  6.2421e+03  1.1275e-02  1.8386e-02  1.8821e-02  1.0440e-02  2.2523e-01  3.6746e-01  0:16:39  436
    65  9.6223e+03  8.9042e-03  1.7916e-02  1.7461e-02  1.1021e-02  2.2045e-01  4.7390e-01  0:16:32  435
    66  1.5031e+04  8.8003e-03  2.3324e-02  2.2363e-02  1.2006e-02  1.8408e-01  3.4499e-01  0:16:27  434

  iter  continuity  x-velocity  y-velocity  z-velocity      energy           k       omega     time/iter
    67  2.3623e+04  8.1558e-03  2.5729e-02  2.4479e-02  1.2990e-02  1.4821e-01  4.0341e-01  0:16:20  433
    68  3.7299e+04  8.2660e-03  2.7127e-02  2.5741e-02  1.2991e-02  1.4997e-01  3.9289e-01  0:16:15  432
    69  5.8698e+04  8.2857e-03  2.7592e-02  2.6282e-02  1.2301e-02  1.6653e-01  3.8516e-01  0:16:13  431
    70  9.1522e+04  8.4593e-03  2.7111e-02  2.6045e-02  1.1143e-02  1.8285e-01  3.6932e-01  0:16:09  430
    71  1.4174e+05  8.3551e-03  2.5910e-02  2.5255e-02  9.7556e-03  1.9463e-01  3.5890e-01  0:16:05  429
    72  2.1863e+05  8.1159e-03  2.4408e-02  2.4206e-02  8.4573e-03  1.9875e-01  3.5292e-01  0:16:00  428
    73  3.3625e+05  7.9890e-03  2.2777e-02  2.2908e-02  7.2531e-03  2.0755e-01  3.4877e-01  0:15:56  427
    74  5.1565e+05  7.9590e-03  2.1093e-02  2.1365e-02  6.2597e-03  2.1825e-01  3.4475e-01  0:15:52  426
    75  7.8731e+05  7.8522e-03  1.9350e-02  1.9757e-02  5.4865e-03  2.2777e-01  3.4209e-01  0:15:47  425
    76  1.1850e+06  7.7656e-03  1.7787e-02  1.8288e-02  4.9980e-03  2.3894e-01  3.3669e-01  0:15:43  424

 turbulent viscosity limited to viscosity ratio of 1.000000e+05 in 203 cells 
    77  1.7824e+06  7.7369e-03  1.6657e-02  1.7234e-02  4.6687e-03  2.4981e-01  3.3967e-01  0:15:38  423

 turbulent viscosity limited to viscosity ratio of 1.000000e+05 in 1632 cells 

  iter  continuity  x-velocity  y-velocity  z-velocity      energy           k       omega     time/iter
    78  2.6702e+06  7.7784e-03  1.5915e-02  1.6482e-02  4.4624e-03  3.8230e-01  3.7645e-01  0:15:35  422

 turbulent viscosity limited to viscosity ratio of 1.000000e+05 in 12397 cells 
    79  3.9649e+06  7.7790e-03  1.5610e-02  1.5819e-02  4.5542e-03  3.5154e-01  3.5645e-01  0:15:34  421

 turbulent viscosity limited to viscosity ratio of 1.000000e+05 in 40887 cells 
    80  5.9365e+06  7.7303e-03  1.5792e-02  1.5672e-02  4.6294e-03  3.3870e-01  3.6026e-01  0:15:33  420

 turbulent viscosity limited to viscosity ratio of 1.000000e+05 in 90063 cells 
    81  9.0040e+06  7.6037e-03  1.5978e-02  1.6110e-02  4.6341e-03  3.8184e-01  3.5001e-01  0:15:34  419

 turbulent viscosity limited to viscosity ratio of 1.000000e+05 in 127065 cells 
    82  1.3663e+07  7.2206e-03  1.6109e-02  1.6197e-02  4.3051e-03  3.6807e-01  3.5993e-01  0:15:33  418

 turbulent viscosity limited to viscosity ratio of 1.000000e+05 in 150384 cells 
    83  2.0775e+07  7.3922e-03  1.6009e-02  1.5944e-02  4.1557e-03  3.8195e-01  3.5518e-01  0:15:34  417

 turbulent viscosity limited to viscosity ratio of 1.000000e+05 in 168672 cells 
    84  3.1840e+07  7.3250e-03  1.5904e-02  1.5938e-02  3.9374e-03  3.6526e-01  3.5664e-01  0:15:36  416

 turbulent viscosity limited to viscosity ratio of 1.000000e+05 in 183032 cells 
    85  4.8227e+07  7.4349e-03  1.5610e-02  1.5852e-02  3.7723e-03  5.2662e-01  3.8875e-01  0:15:40  415

 turbulent viscosity limited to viscosity ratio of 1.000000e+05 in 199156 cells 
    86  7.2718e+07  7.5256e-03  1.5393e-02  1.5755e-02  4.2192e-03  4.3936e-01  3.7282e-01  0:15:41  414

 turbulent viscosity limited to viscosity ratio of 1.000000e+05 in 214820 cells 
    87  1.1161e+08  7.5533e-03  1.5708e-02  1.5950e-02  4.4334e-03  3.8131e-01  3.4474e-01  0:15:40  413

 turbulent viscosity limited to viscosity ratio of 1.000000e+05 in 227835 cells 
    88  1.6879e+08  7.4642e-03  1.6207e-02  1.6106e-02  4.1412e-03  6.0309e-01  3.8804e-01  0:15:37  412

 turbulent viscosity limited to viscosity ratio of 1.000000e+05 in 239851 cells 

  iter  continuity  x-velocity  y-velocity  z-velocity      energy           k       omega     time/iter
    89  2.5717e+08  7.5211e-03  1.6389e-02  1.6078e-02  3.9766e-03  5.2280e-01  4.1138e-01  0:15:35  411

 turbulent viscosity limited to viscosity ratio of 1.000000e+05 in 251713 cells 
    90  3.9397e+08  7.8911e-03  1.6280e-02  1.5850e-02  4.0206e-03  9.4137e-01  4.8767e-01  0:15:33  410

 turbulent viscosity limited to viscosity ratio of 1.000000e+05 in 261188 cells 
    91  5.9649e+08  7.7736e-03  1.6594e-02  1.6639e-02  4.0393e-03  6.9998e-01  4.4160e-01  0:15:31  409

 absolute pressure limited to 5.000000e+10 in 1 cells on zone 1386 

 turbulent viscosity limited to viscosity ratio of 1.000000e+05 in 267982 cells 
    92  9.1475e+08  7.8415e-03  1.6841e-02  1.6983e-02  4.0532e-03  5.7736e-01  4.3015e-01  0:15:30  408

 absolute pressure limited to 5.000000e+10 in 13 cells on zone 1386 

 turbulent viscosity limited to viscosity ratio of 1.000000e+05 in 274320 cells 
    93  1.3990e+09  7.8300e-03  1.6839e-02  1.7095e-02  4.3729e-03  4.4640e-01  3.8285e-01  0:15:18  407

 absolute pressure limited to 5.000000e+10 in 131 cells on zone 1386 

 turbulent viscosity limited to viscosity ratio of 1.000000e+05 in 280863 cells 
    94  2.1723e+09  7.9705e-03  1.7641e-02  1.7235e-02  4.1788e-03  4.0668e-01  3.7596e-01  0:15:16  406

 absolute pressure limited to 5.000000e+10 in 1520 cells on zone 1386 

 turbulent viscosity limited to viscosity ratio of 1.000000e+05 in 288038 cells 
    95  3.2258e+09  7.6706e-03  1.7746e-02  1.7731e-02  4.0079e-03  3.9562e-01  3.5679e-01  0:15:15  405

 absolute pressure limited to 5.000000e+10 in 420950 cells on zone 1386 

 turbulent viscosity limited to viscosity ratio of 1.000000e+05 in 291198 cells 
    96  4.4991e+09  7.6506e-03  1.9937e-02  1.9863e-02  4.7354e-03  2.9826e-01  3.0162e-01  0:15:12  404

 absolute pressure limited to 5.000000e+10 in 421241 cells on zone 1386 

 turbulent viscosity limited to viscosity ratio of 1.000000e+05 in 293095 cells 
    97  5.1032e+09  8.2332e-03  2.8684e-02  2.8755e-02  3.9481e-03  5.7242e-01  2.6424e-01  0:15:35  403

 absolute pressure limited to 5.000000e+10 in 421177 cells on zone 1386 

 turbulent viscosity limited to viscosity ratio of 1.000000e+05 in 296686 cells 
    98  4.1037e+09  6.8745e-03  2.9361e-02  2.9481e-02  4.7645e-03  7.1675e-01  3.4374e-01  0:15:54  402

 absolute pressure limited to 5.000000e+10 in 420751 cells on zone 1386 

 turbulent viscosity limited to viscosity ratio of 1.000000e+05 in 300920 cells 
    99  2.1923e+09  7.3165e-03  2.9563e-02  2.9830e-02  7.8874e-03  8.4430e-01  4.1534e-01  0:15:44  401

 absolute pressure limited to 5.000000e+10 in 420666 cells on zone 1386 

 turbulent viscosity limited to viscosity ratio of 1.000000e+05 in 296745 cells 

  iter  continuity  x-velocity  y-velocity  z-velocity      energy           k       omega     time/iter
   100  1.5608e+09  1.0025e-02  3.1292e-02  3.1561e-02  9.3052e-03  9.6675e-01  4.7085e-01  0:15:40  400

 absolute pressure limited to 5.000000e+10 in 420458 cells on zone 1386 

 turbulent viscosity limited to viscosity ratio of 1.000000e+05 in 298397 cells 
   101  1.5250e+09  1.1806e-02  3.1090e-02  3.1555e-02  8.9210e-03  9.9916e-01  4.9804e-01  0:15:32  399

 absolute pressure limited to 5.000000e+10 in 419501 cells on zone 1386 

 turbulent viscosity limited to viscosity ratio of 1.000000e+05 in 300502 cells 
   102  1.5800e+09  1.1438e-02  2.9788e-02  3.0082e-02  8.7198e-03  1.0109e+00  5.0220e-01  0:15:21  398

 absolute pressure limited to 5.000000e+10 in 416095 cells on zone 1386 

 turbulent viscosity limited to viscosity ratio of 1.000000e+05 in 301623 cells 
   103  1.5302e+09  1.3616e-02  3.0215e-02  3.0002e-02  1.0032e-02  1.0283e+00  5.0722e-01  0:15:12  397

 absolute pressure limited to 5.000000e+10 in 403312 cells on zone 1386 

 turbulent viscosity limited to viscosity ratio of 1.000000e+05 in 290822 cells 
   104  1.7710e+09  1.9613e-02  3.4084e-02  3.4105e-02  1.3480e-02  1.0058e+00  5.0114e-01  0:15:05  396

 absolute pressure limited to 5.000000e+10 in 412669 cells on zone 1386 

 turbulent viscosity limited to viscosity ratio of 1.000000e+05 in 290419 cells 
   105  2.1974e+09  2.1021e-02  4.2701e-02  4.2833e-02  1.2452e-02  1.0073e+00  5.0479e-01  0:15:24  395

 absolute pressure limited to 5.000000e+10 in 418638 cells on zone 1386 

 turbulent viscosity limited to viscosity ratio of 1.000000e+05 in 291703 cells 
   106  2.7575e+09  1.9654e-02  4.6065e-02  4.5713e-02  1.3194e-02  1.0052e+00  5.0484e-01  0:15:38  394

 absolute pressure limited to 5.000000e+10 in 420924 cells on zone 1386 

 turbulent viscosity limited to viscosity ratio of 1.000000e+05 in 270887 cells 
   107  3.4078e+09  1.8912e-02  4.4179e-02  4.5913e-02  1.4738e-02  1.0019e+00  5.0134e-01  0:15:57  393

 absolute pressure limited to 5.000000e+10 in 421158 cells on zone 1386 

 turbulent viscosity limited to viscosity ratio of 1.000000e+05 in 271962 cells 
   108  3.8266e+09  1.8102e-02  4.9219e-02  5.0659e-02  1.4216e-02  1.0005e+00  5.0048e-01  0:16:03  392

 absolute pressure limited to 5.000000e+10 in 421146 cells on zone 1386 

 turbulent viscosity limited to viscosity ratio of 1.000000e+05 in 269735 cells 
   109  4.1401e+09  1.5987e-02  5.0442e-02  5.2679e-02  1.4903e-02  9.9866e-01  4.9866e-01  0:16:09  391

 absolute pressure limited to 5.000000e+10 in 421130 cells on zone 1386 

 turbulent viscosity limited to viscosity ratio of 1.000000e+05 in 267226 cells 
   110  4.2396e+09  1.5848e-02  5.4789e-02  5.2939e-02  1.6988e-02  9.9619e-01  4.9754e-01  0:16:18  390

 absolute pressure limited to 5.000000e+10 in 421143 cells on zone 1386 

 turbulent viscosity limited to viscosity ratio of 1.000000e+05 in 279536 cells 

  iter  continuity  x-velocity  y-velocity  z-velocity      energy           k       omega     time/iter
   111  4.1828e+09  1.5764e-02  5.8398e-02  5.7655e-02  2.0349e-02  9.9878e-01  4.9808e-01  0:16:23  389

 absolute pressure limited to 5.000000e+10 in 421112 cells on zone 1386 

 turbulent viscosity limited to viscosity ratio of 1.000000e+05 in 293124 cells 
   112  4.3595e+09  1.7320e-02  6.0295e-02  5.8533e-02  1.9583e-02  1.0022e+00  4.9737e-01  0:16:26  388

 absolute pressure limited to 5.000000e+10 in 421063 cells on zone 1386 

 turbulent viscosity limited to viscosity ratio of 1.000000e+05 in 309258 cells 
   113  4.3883e+09  1.7617e-02  6.0974e-02  5.8116e-02  1.8819e-02  1.0083e+00  4.9712e-01  0:16:27  387

 absolute pressure limited to 5.000000e+10 in 421072 cells on zone 1386 

 turbulent viscosity limited to viscosity ratio of 1.000000e+05 in 322898 cells 
   114  4.6165e+09  1.6922e-02  5.9368e-02  5.8125e-02  1.8878e-02  1.0078e+00  4.9740e-01  0:16:26  386

 absolute pressure limited to 5.000000e+10 in 421077 cells on zone 1386 

 turbulent viscosity limited to viscosity ratio of 1.000000e+05 in 333538 cells 
   115  4.9618e+09  1.7006e-02  5.7829e-02  5.7340e-02  1.8334e-02  1.0008e+00  5.0017e-01  0:16:27  385

 absolute pressure limited to 5.000000e+10 in 421044 cells on zone 1386 

 turbulent viscosity limited to viscosity ratio of 1.000000e+05 in 342196 cells 
   116  5.2132e+09  1.5930e-02  5.7824e-02  5.7086e-02  1.7426e-02  1.0032e+00  5.0013e-01  0:16:24  384

 absolute pressure limited to 5.000000e+10 in 421079 cells on zone 1386 

 turbulent viscosity limited to viscosity ratio of 1.000000e+05 in 350466 cells 
   117  5.5912e+09  1.5950e-02  5.7411e-02  5.5097e-02  1.7634e-02  1.0109e+00  5.0181e-01  0:16:22  383

 absolute pressure limited to 5.000000e+10 in 421076 cells on zone 1386 

 turbulent viscosity limited to viscosity ratio of 1.000000e+05 in 361137 cells 
   118  6.1878e+09  1.5866e-02  5.7417e-02  5.3420e-02  1.8734e-02  1.0016e+00  5.0055e-01  0:16:20  382

 absolute pressure limited to 5.000000e+10 in 421050 cells on zone 1386 

 turbulent viscosity limited to viscosity ratio of 1.000000e+05 in 372190 cells 
   119  6.5838e+09  1.4998e-02  5.6969e-02  5.5752e-02  1.8854e-02  1.0009e+00  5.0015e-01  0:16:15  381

 absolute pressure limited to 5.000000e+10 in 421070 cells on zone 1386 

 turbulent viscosity limited to viscosity ratio of 1.000000e+05 in 373136 cells 
   120  7.1654e+09  1.4396e-02  5.4660e-02  5.4749e-02  1.9514e-02  1.0044e+00  5.0071e-01  0:16:14  380

 absolute pressure limited to 5.000000e+10 in 421038 cells on zone 1386 

 turbulent viscosity limited to viscosity ratio of 1.000000e+05 in 377692 cells 
   121  7.6249e+09  1.3512e-02  5.4199e-02  5.3462e-02  1.9318e-02  1.0017e+00  4.9982e-01  0:16:13  379

 absolute pressure limited to 5.000000e+10 in 421018 cells on zone 1386 

 turbulent viscosity limited to viscosity ratio of 1.000000e+05 in 387325 cells 

  iter  continuity  x-velocity  y-velocity  z-velocity      energy           k       omega     time/iter
   122  7.8773e+09  1.2870e-02  5.3258e-02  5.2237e-02  1.9476e-02  1.0029e+00  4.9997e-01  0:16:09  378

 absolute pressure limited to 5.000000e+10 in 421057 cells on zone 1386 

 turbulent viscosity limited to viscosity ratio of 1.000000e+05 in 395129 cells 
   123  8.4580e+09  1.2636e-02  5.4608e-02  5.0699e-02  1.8888e-02  1.0015e+00  4.9877e-01  0:16:06  377

 absolute pressure limited to 5.000000e+10 in 421022 cells on zone 1386 

 turbulent viscosity limited to viscosity ratio of 1.000000e+05 in 402056 cells 
   124  9.3500e+09  1.1925e-02  5.3304e-02  5.1307e-02  1.9567e-02  1.0008e+00  4.9868e-01  0:16:04  376

 absolute pressure limited to 5.000000e+10 in 421047 cells on zone 1386 

 turbulent viscosity limited to viscosity ratio of 1.000000e+05 in 407255 cells 
   125  9.6776e+09  1.1339e-02  4.9498e-02  5.0267e-02  2.0987e-02  1.0055e+00  4.9989e-01  0:16:00  375

 absolute pressure limited to 5.000000e+10 in 421021 cells on zone 1386 

 turbulent viscosity limited to viscosity ratio of 1.000000e+05 in 409425 cells 
   126  9.7954e+09  1.0951e-02  4.9639e-02  5.2545e-02  2.0062e-02  1.0000e+00  4.9969e-01  0:15:56  374

 absolute pressure limited to 5.000000e+10 in 421009 cells on zone 1386 

 turbulent viscosity limited to viscosity ratio of 1.000000e+05 in 410142 cells 
   127  1.0504e+10  1.0886e-02  4.9906e-02  5.1433e-02  2.0380e-02  1.0006e+00  4.9951e-01  0:15:53  373

 absolute pressure limited to 5.000000e+10 in 421020 cells on zone 1386 

 turbulent viscosity limited to viscosity ratio of 1.000000e+05 in 410571 cells 
   128  1.1499e+10  1.0641e-02  5.0113e-02  4.8655e-02  2.0128e-02  1.0020e+00  4.9898e-01  0:15:50  372

 absolute pressure limited to 5.000000e+10 in 420994 cells on zone 1386 

 turbulent viscosity limited to viscosity ratio of 1.000000e+05 in 411499 cells 
   129  1.1772e+10  9.8350e-03  5.1400e-02  4.8055e-02  2.0268e-02  1.0054e+00  4.9894e-01  0:15:48  371

 absolute pressure limited to 5.000000e+10 in 421013 cells on zone 1386 

 turbulent viscosity limited to viscosity ratio of 1.000000e+05 in 411787 cells 
   130  1.2474e+10  9.7548e-03  4.9499e-02  4.6443e-02  2.0566e-02  1.0045e+00  5.0025e-01  0:15:44  370

 absolute pressure limited to 5.000000e+10 in 421013 cells on zone 1386 

 turbulent viscosity limited to viscosity ratio of 1.000000e+05 in 412372 cells 
   131  1.3586e+10  9.6210e-03  5.0457e-02  4.5558e-02  2.1318e-02  1.0010e+00  4.9980e-01  0:15:41  369

 absolute pressure limited to 5.000000e+10 in 420979 cells on zone 1386 

 turbulent viscosity limited to viscosity ratio of 1.000000e+05 in 412467 cells 
   132  1.3424e+10  8.9107e-03  4.7868e-02  4.7342e-02  2.1638e-02  1.0007e+00  4.9849e-01  0:15:38  368

 absolute pressure limited to 5.000000e+10 in 420988 cells on zone 1386 

 turbulent viscosity limited to viscosity ratio of 1.000000e+05 in 412678 cells 

  iter  continuity  x-velocity  y-velocity  z-velocity      energy           k       omega     time/iter
   133  1.4165e+10  9.0297e-03  4.7014e-02  4.6101e-02  2.1642e-02  1.0000e+00  4.9787e-01  0:15:38  367

 absolute pressure limited to 5.000000e+10 in 420988 cells on zone 1386 

 turbulent viscosity limited to viscosity ratio of 1.000000e+05 in 412430 cells 
   134  1.5369e+10  8.5693e-03  4.7867e-02  4.6012e-02  2.0077e-02  1.0011e+00  4.9796e-01  0:15:40  366

 absolute pressure limited to 5.000000e+10 in 420987 cells on zone 1386 

 turbulent viscosity limited to viscosity ratio of 1.000000e+05 in 412567 cells 
   135  1.5276e+10  7.9656e-03  4.7332e-02  4.3146e-02  1.9702e-02  1.0011e+00  4.9948e-01  0:15:35  365

 absolute pressure limited to 5.000000e+10 in 421000 cells on zone 1386 

 turbulent viscosity limited to viscosity ratio of 1.000000e+05 in 412128 cells 
   136  1.6277e+10  8.3629e-03  4.6218e-02  4.3198e-02  2.0910e-02  1.0001e+00  4.9808e-01  0:15:34  364

 absolute pressure limited to 5.000000e+10 in 420971 cells on zone 1386 

 turbulent viscosity limited to viscosity ratio of 1.000000e+05 in 411340 cells 
   137  1.7209e+10  7.7980e-03  4.6118e-02  4.4864e-02  2.1513e-02  1.0010e+00  4.9884e-01  0:15:34  363

 absolute pressure limited to 5.000000e+10 in 420970 cells on zone 1386 

 turbulent viscosity limited to viscosity ratio of 1.000000e+05 in 410626 cells 
   138  1.6764e+10  7.7597e-03  4.7160e-02  4.3844e-02  2.2764e-02  1.0050e+00  4.9754e-01  0:15:33  362

 absolute pressure limited to 5.000000e+10 in 421002 cells on zone 1386 

 turbulent viscosity limited to viscosity ratio of 1.000000e+05 in 409537 cells 
   139  1.8147e+10  7.5999e-03  4.6276e-02  4.5424e-02  2.3009e-02  1.0004e+00  4.9962e-01  0:15:34  361

 absolute pressure limited to 5.000000e+10 in 420965 cells on zone 1386 

 turbulent viscosity limited to viscosity ratio of 1.000000e+05 in 411260 cells 
   140  1.9338e+10  6.7518e-03  4.7128e-02  4.6510e-02  2.1423e-02  1.0017e+00  4.9936e-01  0:15:30  360

 absolute pressure limited to 5.000000e+10 in 420956 cells on zone 1386 

 turbulent viscosity limited to viscosity ratio of 1.000000e+05 in 411483 cells 
   141  1.9323e+10  6.6224e-03  4.3825e-02  4.6060e-02  2.1447e-02  1.0001e+00  4.9857e-01  0:15:33  359

 absolute pressure limited to 5.000000e+10 in 421028 cells on zone 1386 

 turbulent viscosity limited to viscosity ratio of 1.000000e+05 in 410084 cells 
   142  2.0730e+10  6.6165e-03  4.3950e-02  4.5395e-02  2.1233e-02  9.9810e-01  4.9676e-01  0:15:31  358

 absolute pressure limited to 5.000000e+10 in 421003 cells on zone 1386 

 turbulent viscosity limited to viscosity ratio of 1.000000e+05 in 410841 cells 
   143  2.1713e+10  6.2055e-03  4.3438e-02  4.4436e-02  2.1166e-02  9.9747e-01  4.9524e-01  0:15:29  357

 absolute pressure limited to 5.000000e+10 in 420990 cells on zone 1386 

 turbulent viscosity limited to viscosity ratio of 1.000000e+05 in 411165 cells 

  iter  continuity  x-velocity  y-velocity  z-velocity      energy           k       omega     time/iter
   144  2.1157e+10  6.1033e-03  4.1520e-02  4.3929e-02  2.0745e-02  9.9801e-01  4.9592e-01  0:15:26  356

 absolute pressure limited to 5.000000e+10 in 421024 cells on zone 1386 

 turbulent viscosity limited to viscosity ratio of 1.000000e+05 in 411236 cells 
   145  2.3090e+10  6.3298e-03  4.2297e-02  4.3849e-02  2.1422e-02  1.0009e+00  4.9608e-01  0:15:24  355

 absolute pressure limited to 5.000000e+10 in 420954 cells on zone 1386 

 turbulent viscosity limited to viscosity ratio of 1.000000e+05 in 412268 cells 
   146  2.2845e+10  6.1135e-03  4.3242e-02  4.4008e-02  2.1116e-02  1.0003e+00  4.9776e-01  0:15:18  354

 absolute pressure limited to 5.000000e+10 in 420983 cells on zone 1386 

 turbulent viscosity limited to viscosity ratio of 1.000000e+05 in 412519 cells 
   147  2.2771e+10  5.8309e-03  4.3737e-02  4.3596e-02  2.2481e-02  9.9996e-01  4.9698e-01  0:15:10  353

 absolute pressure limited to 5.000000e+10 in 420980 cells on zone 1386 

 turbulent viscosity limited to viscosity ratio of 1.000000e+05 in 412807 cells 
   148  2.4903e+10  6.2700e-03  4.4954e-02  4.4551e-02  2.2868e-02  1.0001e+00  4.9664e-01  0:15:03  352

 absolute pressure limited to 5.000000e+10 in 420956 cells on zone 1386 

 turbulent viscosity limited to viscosity ratio of 1.000000e+05 in 413092 cells 
   149  2.4766e+10  5.6580e-03  4.3138e-02  4.4511e-02  2.2315e-02  9.9916e-01  4.9783e-01  0:15:00  351

 absolute pressure limited to 5.000000e+10 in 421001 cells on zone 1386 

 turbulent viscosity limited to viscosity ratio of 1.000000e+05 in 413196 cells 
   150  2.5251e+10  5.6535e-03  4.1032e-02  4.2638e-02  2.3034e-02  9.9880e-01  4.9825e-01  0:14:57  350

 absolute pressure limited to 5.000000e+10 in 421004 cells on zone 1386 

 turbulent viscosity limited to viscosity ratio of 1.000000e+05 in 412617 cells 
   151  2.7042e+10  5.4154e-03  4.3144e-02  4.3816e-02  2.2125e-02  9.9817e-01  4.9721e-01  0:14:57  349

 absolute pressure limited to 5.000000e+10 in 420944 cells on zone 1386 

 turbulent viscosity limited to viscosity ratio of 1.000000e+05 in 412905 cells 
   152  2.6108e+10  5.2316e-03  4.3071e-02  4.3357e-02  2.2234e-02  1.0003e+00  4.9830e-01  0:14:54  348

 absolute pressure limited to 5.000000e+10 in 421020 cells on zone 1386 

 turbulent viscosity limited to viscosity ratio of 1.000000e+05 in 413241 cells 
   153  2.6933e+10  5.6112e-03  4.3006e-02  4.1923e-02  2.4364e-02  1.0018e+00  4.9835e-01  0:14:50  347

 absolute pressure limited to 5.000000e+10 in 420940 cells on zone 1386 

 turbulent viscosity limited to viscosity ratio of 1.000000e+05 in 413435 cells 
   154  2.7620e+10  5.5417e-03  4.4003e-02  4.5611e-02  2.2406e-02  9.9984e-01  4.9945e-01  0:14:50  346

 absolute pressure limited to 5.000000e+10 in 420962 cells on zone 1386 

 turbulent viscosity limited to viscosity ratio of 1.000000e+05 in 413899 cells 

  iter  continuity  x-velocity  y-velocity  z-velocity      energy           k       omega     time/iter
   155  2.7938e+10  5.0940e-03  4.3486e-02  4.1981e-02  2.2360e-02  9.9982e-01  4.9971e-01  0:14:50  345

 absolute pressure limited to 5.000000e+10 in 420988 cells on zone 1386 

 turbulent viscosity limited to viscosity ratio of 1.000000e+05 in 413119 cells 
   156  2.9928e+10  5.1713e-03  4.2193e-02  4.1647e-02  2.2453e-02  9.9903e-01  4.9932e-01  0:14:49  344

 absolute pressure limited to 5.000000e+10 in 420958 cells on zone 1386 

 turbulent viscosity limited to viscosity ratio of 1.000000e+05 in 413104 cells 
   157  3.0014e+10  5.0993e-03  4.1003e-02  4.2082e-02  2.1322e-02  9.9900e-01  4.9893e-01  0:14:46  343

 absolute pressure limited to 5.000000e+10 in 420980 cells on zone 1386 

 turbulent viscosity limited to viscosity ratio of 1.000000e+05 in 413224 cells 
   158  2.9176e+10  5.1364e-03  3.9875e-02  3.9965e-02  2.3007e-02  9.9988e-01  4.9961e-01  0:14:43  342

 absolute pressure limited to 5.000000e+10 in 420980 cells on zone 1386 

 turbulent viscosity limited to viscosity ratio of 1.000000e+05 in 413164 cells 
   159  3.1212e+10  5.3547e-03  4.0750e-02  4.1106e-02  2.2005e-02  9.9890e-01  4.9877e-01  0:14:42  341

 absolute pressure limited to 5.000000e+10 in 420953 cells on zone 1386 

 turbulent viscosity limited to viscosity ratio of 1.000000e+05 in 413213 cells 
   160  3.1253e+10  4.7872e-03  3.9686e-02  4.1688e-02  1.9995e-02  9.9924e-01  4.9878e-01  0:14:35  340

 absolute pressure limited to 5.000000e+10 in 420952 cells on zone 1386 

 turbulent viscosity limited to viscosity ratio of 1.000000e+05 in 413295 cells 
   161  3.0394e+10  4.7928e-03  3.8037e-02  4.0952e-02  2.1407e-02  9.9981e-01  4.9967e-01  0:14:31  339

 absolute pressure limited to 5.000000e+10 in 420979 cells on zone 1386 

 turbulent viscosity limited to viscosity ratio of 1.000000e+05 in 412805 cells 
   162  3.2514e+10  4.7917e-03  3.8818e-02  4.0820e-02  2.0891e-02  9.9938e-01  4.9935e-01  0:14:25  338

 absolute pressure limited to 5.000000e+10 in 420956 cells on zone 1386 

 turbulent viscosity limited to viscosity ratio of 1.000000e+05 in 412952 cells 
   163  3.2281e+10  4.6796e-03  3.8369e-02  4.0955e-02  1.9496e-02  9.9957e-01  4.9900e-01  0:14:23  337

 absolute pressure limited to 5.000000e+10 in 420981 cells on zone 1386 

 turbulent viscosity limited to viscosity ratio of 1.000000e+05 in 413125 cells 
   164  3.1938e+10  5.0042e-03  3.8613e-02  3.9997e-02  2.0252e-02  9.9818e-01  4.9790e-01  0:14:19  336

 absolute pressure limited to 5.000000e+10 in 420959 cells on zone 1386 

 turbulent viscosity limited to viscosity ratio of 1.000000e+05 in 413168 cells 
   165  3.4072e+10  4.8506e-03  4.1369e-02  3.9415e-02  2.0838e-02  1.0029e+00  4.9765e-01  0:14:17  335

 absolute pressure limited to 5.000000e+10 in 420918 cells on zone 1386 

 turbulent viscosity limited to viscosity ratio of 1.000000e+05 in 413589 cells 

  iter  continuity  x-velocity  y-velocity  z-velocity      energy           k       omega     time/iter
   166  3.4111e+10  4.3321e-03  4.0376e-02  3.9334e-02  2.1811e-02  1.0000e+00  4.9981e-01  0:14:16  334

 absolute pressure limited to 5.000000e+10 in 420965 cells on zone 1386 

 turbulent viscosity limited to viscosity ratio of 1.000000e+05 in 413843 cells 
   167  3.3264e+10  4.4910e-03  4.2397e-02  4.0806e-02  2.0738e-02  9.9978e-01  4.9950e-01  0:14:14  333

 absolute pressure limited to 5.000000e+10 in 420992 cells on zone 1386 

 turbulent viscosity limited to viscosity ratio of 1.000000e+05 in 414051 cells 
   168  3.6102e+10  4.4055e-03  4.1798e-02  4.1043e-02  2.1282e-02  9.9919e-01  4.9883e-01  0:14:11  332

 absolute pressure limited to 5.000000e+10 in 420941 cells on zone 1386 

 turbulent viscosity limited to viscosity ratio of 1.000000e+05 in 414114 cells 
   169  3.5700e+10  4.1100e-03  4.1183e-02  4.2467e-02  2.1165e-02  9.9836e-01  4.9752e-01  0:14:10  331

 absolute pressure limited to 5.000000e+10 in 420980 cells on zone 1386 

 turbulent viscosity limited to viscosity ratio of 1.000000e+05 in 414326 cells 
   170  3.4998e+10  4.3018e-03  4.1673e-02  4.0086e-02  2.2616e-02  9.9397e-01  4.9521e-01  0:14:08  330

 absolute pressure limited to 5.000000e+10 in 420970 cells on zone 1386 

 turbulent viscosity limited to viscosity ratio of 1.000000e+05 in 414156 cells 
   171  3.5424e+10  4.4360e-03  4.1522e-02  4.0640e-02  2.3425e-02  9.9952e-01  4.9759e-01  0:14:07  329

 absolute pressure limited to 5.000000e+10 in 420975 cells on zone 1386 

 turbulent viscosity limited to viscosity ratio of 1.000000e+05 in 414497 cells 
   172  3.5408e+10  4.3703e-03  4.1335e-02  4.3216e-02  2.2789e-02  9.9960e-01  4.9681e-01  0:14:03  328

 absolute pressure limited to 5.000000e+10 in 420983 cells on zone 1386 

 turbulent viscosity limited to viscosity ratio of 1.000000e+05 in 414347 cells 
   173  3.5941e+10  4.4231e-03  4.1123e-02  4.2207e-02  2.3105e-02  1.0001e+00  4.9930e-01  0:14:00  327

 absolute pressure limited to 5.000000e+10 in 420957 cells on zone 1386 

 turbulent viscosity limited to viscosity ratio of 1.000000e+05 in 414463 cells 
   174  3.6652e+10  4.1623e-03  4.1924e-02  4.3545e-02  2.2134e-02  9.9958e-01  4.9874e-01  0:13:57  326

 absolute pressure limited to 5.000000e+10 in 420966 cells on zone 1386 

 turbulent viscosity limited to viscosity ratio of 1.000000e+05 in 414273 cells 
   175  3.7169e+10  4.2783e-03  4.2413e-02  4.1166e-02  2.3056e-02  9.9698e-01  4.9672e-01  0:13:56  325

 absolute pressure limited to 5.000000e+10 in 420971 cells on zone 1386 

 turbulent viscosity limited to viscosity ratio of 1.000000e+05 in 414309 cells 
   176  3.8022e+10  4.2173e-03  4.3276e-02  4.0889e-02  2.5314e-02  9.9978e-01  4.9705e-01  0:13:51  324

 absolute pressure limited to 5.000000e+10 in 420972 cells on zone 1386 

 turbulent viscosity limited to viscosity ratio of 1.000000e+05 in 414285 cells 

  iter  continuity  x-velocity  y-velocity  z-velocity      energy           k       omega     time/iter
   177  3.8771e+10  4.1451e-03  4.6607e-02  3.9771e-02  2.4770e-02  9.9998e-01  4.9980e-01  0:13:48  323

 absolute pressure limited to 5.000000e+10 in 420985 cells on zone 1386 

 turbulent viscosity limited to viscosity ratio of 1.000000e+05 in 414158 cells 
   178  3.9521e+10  3.8632e-03  4.2475e-02  4.1743e-02  2.4365e-02  9.9967e-01  4.9951e-01  0:13:45  322

 absolute pressure limited to 5.000000e+10 in 420951 cells on zone 1386 

 turbulent viscosity limited to viscosity ratio of 1.000000e+05 in 414246 cells 
   179  4.0854e+10  4.2373e-03  4.0156e-02  4.3890e-02  2.4108e-02  9.9917e-01  4.9917e-01  0:13:44  321

 absolute pressure limited to 5.000000e+10 in 420971 cells on zone 1386 

 turbulent viscosity limited to viscosity ratio of 1.000000e+05 in 414524 cells 
   180  4.1012e+10  4.0684e-03  4.0626e-02  4.2727e-02  2.4439e-02  9.9860e-01  4.9841e-01  0:13:42  320

 absolute pressure limited to 5.000000e+10 in 420967 cells on zone 1386 

 turbulent viscosity limited to viscosity ratio of 1.000000e+05 in 414296 cells 
   181  4.0975e+10  4.0162e-03  4.2413e-02  4.1941e-02  2.4661e-02  9.9671e-01  4.9705e-01  0:13:39  319

 absolute pressure limited to 5.000000e+10 in 420968 cells on zone 1386 

 turbulent viscosity limited to viscosity ratio of 1.000000e+05 in 414262 cells 
   182  3.9532e+10  4.1443e-03  4.2762e-02  3.9859e-02  2.6049e-02  9.9954e-01  4.9865e-01  0:13:36  318

 absolute pressure limited to 5.000000e+10 in 420980 cells on zone 1386 

 turbulent viscosity limited to viscosity ratio of 1.000000e+05 in 414334 cells 
   183  4.0846e+10  4.1419e-03  4.6185e-02  3.9497e-02  2.5064e-02  9.9897e-01  4.9842e-01  0:13:52  317

 absolute pressure limited to 5.000000e+10 in 420952 cells on zone 1386 

 turbulent viscosity limited to viscosity ratio of 1.000000e+05 in 414273 cells 
   184  3.9163e+10  4.0295e-03  4.5150e-02  3.9648e-02  2.6977e-02  9.9687e-01  4.9702e-01  0:13:44  316

 absolute pressure limited to 5.000000e+10 in 420959 cells on zone 1386 

 turbulent viscosity limited to viscosity ratio of 1.000000e+05 in 414308 cells 
   185  3.7858e+10  4.1894e-03  4.6134e-02  4.0769e-02  2.7863e-02  9.9943e-01  4.9879e-01  0:13:36  315

 absolute pressure limited to 5.000000e+10 in 420975 cells on zone 1386 

 turbulent viscosity limited to viscosity ratio of 1.000000e+05 in 414210 cells 
   186  3.9035e+10  4.1368e-03  4.3743e-02  4.3660e-02  2.6984e-02  9.9318e-01  4.9266e-01  0:13:31  314

 absolute pressure limited to 5.000000e+10 in 420956 cells on zone 1386 

 turbulent viscosity limited to viscosity ratio of 1.000000e+05 in 414368 cells 
   187  4.1612e+10  4.2290e-03  4.1607e-02  4.5086e-02  2.8226e-02  9.9160e-01  4.8991e-01  0:13:28  313
 temperature limited to 5.000000e+03 in 1 cells on zone 1386 in domain 1
 
 absolute pressure limited to 5.000000e+10 in 420940 cells on zone 1386 

 turbulent viscosity limited to viscosity ratio of 1.000000e+05 in 414086 cells 

  iter  continuity  x-velocity  y-velocity  z-velocity      energy           k       omega     time/iter
   188  4.0545e+10  4.0005e-03  4.2929e-02  4.3105e-02  2.7381e-02  9.9488e-01  4.9277e-01  0:13:26  312
 temperature limited to 5.000000e+03 in 35 cells on zone 1386 in domain 1
 
 absolute pressure limited to 5.000000e+10 in 421006 cells on zone 1386 

 turbulent viscosity limited to viscosity ratio of 1.000000e+05 in 414559 cells 
   189  4.0354e+10  3.5842e-03  3.9477e-02  4.2762e-02  2.8264e-02  9.9691e-01  4.9502e-01  0:13:23  311

 absolute pressure limited to 5.000000e+10 in 420983 cells on zone 1386 

 turbulent viscosity limited to viscosity ratio of 1.000000e+05 in 414384 cells 
   190  4.1966e+10  3.8701e-03  4.0327e-02  3.9061e-02  3.3624e-02  9.8827e-01  4.8998e-01  0:13:00  310
 temperature limited to 5.000000e+03 in 14 cells on zone 1386 in domain 1
 
 absolute pressure limited to 5.000000e+10 in 421114 cells on zone 1386 

 turbulent viscosity limited to viscosity ratio of 1.000000e+05 in 415014 cells 
   191  4.4608e+10  4.2633e-03  3.9993e-02  3.6944e-02  2.1900e-02  9.8546e-01  4.8393e-01  0:13:29  309
 temperature limited to 5.000000e+03 in 7 cells on zone 1386 in domain 1
 
 absolute pressure limited to 5.000000e+10 in 421069 cells on zone 1386 

 turbulent viscosity limited to viscosity ratio of 1.000000e+05 in 414980 cells 
   192  4.3902e+10  3.0470e-03  3.9480e-02  3.6447e-02  2.2695e-02  9.8242e-01  4.7980e-01  0:13:23  308
 temperature limited to 5.000000e+03 in 75 cells on zone 1386 in domain 1
 
 absolute pressure limited to 5.000000e+10 in 420979 cells on zone 1386 

 turbulent viscosity limited to viscosity ratio of 1.000000e+05 in 415174 cells 
   193  4.1672e+10  3.6058e-03  3.7821e-02  3.6676e-02  2.2628e-02  9.7579e-01  4.7358e-01  0:13:17  307

 absolute pressure limited to 5.000000e+10 in 421017 cells on zone 1386 

 turbulent viscosity limited to viscosity ratio of 1.000000e+05 in 415012 cells 
   194  3.7324e+10  3.8909e-03  3.7925e-02  3.3994e-02  2.5006e-02  9.6143e-01  4.5889e-01  0:13:12  306
 temperature limited to 5.000000e+03 in 13 cells on zone 1386 in domain 1
 
 absolute pressure limited to 5.000000e+10 in 420979 cells on zone 1386 

 turbulent viscosity limited to viscosity ratio of 1.000000e+05 in 414603 cells 
   195  3.8883e+10  4.1680e-03  4.0496e-02  3.6396e-02  2.7848e-02  9.9006e-01  4.7607e-01  0:13:06  305
 temperature limited to 5.000000e+03 in 11 cells on zone 1386 in domain 1
 
 absolute pressure limited to 5.000000e+10 in 420923 cells on zone 1386 

 turbulent viscosity limited to viscosity ratio of 1.000000e+05 in 414570 cells 
   196  3.7552e+10  3.9485e-03  4.1737e-02  3.7263e-02  2.5311e-02  9.9951e-01  4.9772e-01  0:13:02  304
        Stabilizing temperature to enhance linear solver robustness.
 temperature limited to 5.000000e+03 in 201 cells on zone 1386 in domain 1
 
 absolute pressure limited to 5.000000e+10 in 420997 cells on zone 1386 

 turbulent viscosity limited to viscosity ratio of 1.000000e+05 in 414812 cells 
   197  3.5062e+10  3.7148e-03  4.0549e-02  3.9120e-02  2.8360e-02  9.9945e-01  4.9774e-01  0:13:50  303
 temperature limited to 5.000000e+03 in 396 cells on zone 1386 in domain 1
  temperature limited to 5.000000e+03 on 11 faces

 absolute pressure limited to 5.000000e+10 in 420927 cells on zone 1386 

 turbulent viscosity limited to viscosity ratio of 1.000000e+05 in 414786 cells 
   198  3.7064e+10  4.2439e-03  4.1882e-02  4.1475e-02  2.7903e-02  9.9851e-01  4.9693e-01  0:13:37  302
 temperature limited to 5.000000e+03 in 656 cells on zone 1386 in domain 1
  temperature limited to 5.000000e+03 on 56 faces

 absolute pressure limited to 5.000000e+10 in 420968 cells on zone 1386 

 turbulent viscosity limited to viscosity ratio of 1.000000e+05 in 414473 cells 

  iter  continuity  x-velocity  y-velocity  z-velocity      energy           k       omega     time/iter
   199  3.8679e+10  4.2236e-03  4.2216e-02  4.2054e-02  2.8439e-02  9.9916e-01  4.9636e-01  0:13:25  301
 temperature limited to 5.000000e+03 in 1008 cells on zone 1386 in domain 1
  temperature limited to 5.000000e+03 on 102 faces

 absolute pressure limited to 5.000000e+10 in 420992 cells on zone 1386 

 turbulent viscosity limited to viscosity ratio of 1.000000e+05 in 414410 cells 
   200  3.8679e+10  3.9860e-03  4.1362e-02  4.2302e-02  2.8359e-02  9.9889e-01  4.9791e-01  0:13:16  300
 temperature limited to 5.000000e+03 in 1503 cells on zone 1386 in domain 1
  temperature limited to 5.000000e+03 on 211 faces

 absolute pressure limited to 5.000000e+10 in 420953 cells on zone 1386 

 turbulent viscosity limited to viscosity ratio of 1.000000e+05 in 414643 cells 
   201  4.0996e+10  3.8512e-03  4.2234e-02  4.1676e-02  2.7250e-02  9.9746e-01  4.9652e-01  0:13:08  299
 temperature limited to 5.000000e+03 in 1660 cells on zone 1386 in domain 1
  temperature limited to 5.000000e+03 on 370 faces

 absolute pressure limited to 5.000000e+10 in 420957 cells on zone 1386 

 turbulent viscosity limited to viscosity ratio of 1.000000e+05 in 414315 cells 
   202  4.0357e+10  3.7095e-03  4.1172e-02  4.0198e-02  2.5346e-02  9.8807e-01  4.9119e-01  0:13:01  298
        Stabilizing temperature to enhance linear solver robustness.
 temperature limited to 5.000000e+03 in 1081 cells on zone 1386 in domain 1
  temperature limited to 5.000000e+03 on 456 faces

 absolute pressure limited to 5.000000e+10 in 420980 cells on zone 1386 

 turbulent viscosity limited to viscosity ratio of 1.000000e+05 in 414209 cells 
   203  4.0043e+10  3.7603e-03  4.0565e-02  3.9811e-02  2.7237e-02  9.9916e-01  4.9708e-01  0:13:43  297
 temperature limited to 5.000000e+03 in 1817 cells on zone 1386 in domain 1
  temperature limited to 5.000000e+03 on 501 faces

 absolute pressure limited to 5.000000e+10 in 420947 cells on zone 1386 

 turbulent viscosity limited to viscosity ratio of 1.000000e+05 in 413572 cells 
   204  4.3511e+10  4.0671e-03  4.1490e-02  4.1633e-02  2.6390e-02  9.9504e-01  4.9184e-01  0:13:32  296
 temperature limited to 5.000000e+03 in 1602 cells on zone 1386 in domain 1
  temperature limited to 5.000000e+03 on 557 faces

 absolute pressure limited to 5.000000e+10 in 420961 cells on zone 1386 

 turbulent viscosity limited to viscosity ratio of 1.000000e+05 in 413629 cells 
   205  4.1094e+10  3.5600e-03  4.2565e-02  4.1460e-02  2.7056e-02  9.9928e-01  4.9835e-01  0:13:20  295
 temperature limited to 5.000000e+03 in 1740 cells on zone 1386 in domain 1
  temperature limited to 5.000000e+03 on 613 faces

 absolute pressure limited to 5.000000e+10 in 420995 cells on zone 1386 

 turbulent viscosity limited to viscosity ratio of 1.000000e+05 in 412990 cells 
   206  4.1844e+10  3.7858e-03  4.1111e-02  4.2132e-02  2.6325e-02  9.9817e-01  4.9753e-01  0:13:11  294
 temperature limited to 5.000000e+03 in 2027 cells on zone 1386 in domain 1
  temperature limited to 5.000000e+03 on 710 faces

 absolute pressure limited to 5.000000e+10 in 420961 cells on zone 1386 

 turbulent viscosity limited to viscosity ratio of 1.000000e+05 in 413364 cells 
   207  4.6103e+10  3.8739e-03  4.2366e-02  4.1455e-02  2.5563e-02  9.9822e-01  4.9697e-01  0:13:01  293
 temperature limited to 5.000000e+03 in 2149 cells on zone 1386 in domain 1
  temperature limited to 5.000000e+03 on 777 faces

 absolute pressure limited to 5.000000e+10 in 420959 cells on zone 1386 

 turbulent viscosity limited to viscosity ratio of 1.000000e+05 in 412952 cells 
   208  4.3170e+10  3.2921e-03  3.9159e-02  3.9769e-02  2.5160e-02  9.9583e-01  4.9416e-01  0:12:51  292
 temperature limited to 1.000000e+00 in 1 cells on zone 1386 in domain 1
  temperature limited to 5.000000e+03 in 1926 cells on zone 1386 in domain 1
  temperature limited to 5.000000e+03 on 811 faces

 absolute pressure limited to 5.000000e+10 in 420996 cells on zone 1386 

 turbulent viscosity limited to viscosity ratio of 1.000000e+05 in 413265 cells 
   209  4.3811e+10  3.5121e-03  4.1808e-02  3.9485e-02  2.7238e-02  9.9334e-01  4.9155e-01  0:12:43  291
 temperature limited to 1.000000e+00 in 7 cells on zone 1386 in domain 1
  temperature limited to 5.000000e+03 in 2249 cells on zone 1386 in domain 1
  temperature limited to 5.000000e+03 on 826 faces

 absolute pressure limited to 5.000000e+10 in 420943 cells on zone 1386 

 turbulent viscosity limited to viscosity ratio of 1.000000e+05 in 413386 cells 

  iter  continuity  x-velocity  y-velocity  z-velocity      energy           k       omega     time/iter
   210  4.5600e+10  3.7027e-03  4.2824e-02  4.0089e-02  2.4815e-02  9.9539e-01  4.8958e-01  0:12:36  290
 temperature limited to 1.000000e+00 in 20 cells on zone 1386 in domain 1
  temperature limited to 5.000000e+03 in 2436 cells on zone 1386 in domain 1
  temperature limited to 5.000000e+03 on 844 faces

 absolute pressure limited to 5.000000e+10 in 421000 cells on zone 1386 

 turbulent viscosity limited to viscosity ratio of 1.000000e+05 in 413803 cells 
   211  4.4867e+10  3.4243e-03  4.3547e-02  3.9699e-02  2.6527e-02  9.9496e-01  4.9117e-01  0:12:31  289
 temperature limited to 1.000000e+00 in 33 cells on zone 1386 in domain 1
  temperature limited to 5.000000e+03 in 2450 cells on zone 1386 in domain 1
  temperature limited to 5.000000e+03 on 906 faces

 absolute pressure limited to 5.000000e+10 in 420977 cells on zone 1386 

 turbulent viscosity limited to viscosity ratio of 1.000000e+05 in 413815 cells 
   212  4.5501e+10  3.6844e-03  4.5365e-02  3.9812e-02  2.6860e-02  9.9653e-01  4.9324e-01  0:12:26  288
 temperature limited to 1.000000e+00 in 44 cells on zone 1386 in domain 1
  temperature limited to 5.000000e+03 in 2623 cells on zone 1386 in domain 1
  temperature limited to 5.000000e+03 on 978 faces

 absolute pressure limited to 5.000000e+10 in 420948 cells on zone 1386 

 turbulent viscosity limited to viscosity ratio of 1.000000e+05 in 413526 cells 
   213  4.7412e+10  3.5359e-03  4.3477e-02  4.0734e-02  2.7012e-02  9.9528e-01  4.9197e-01  0:12:24  287
 temperature limited to 1.000000e+00 in 52 cells on zone 1386 in domain 1
  temperature limited to 5.000000e+03 in 2591 cells on zone 1386 in domain 1
  temperature limited to 5.000000e+03 on 1002 faces

 absolute pressure limited to 5.000000e+10 in 420982 cells on zone 1386 

 turbulent viscosity limited to viscosity ratio of 1.000000e+05 in 413453 cells 
   214  4.8303e+10  3.4936e-03  4.3754e-02  3.9136e-02  2.5207e-02  9.9918e-01  4.9744e-01  0:12:21  286
 temperature limited to 1.000000e+00 in 72 cells on zone 1386 in domain 1
  temperature limited to 5.000000e+03 in 2787 cells on zone 1386 in domain 1
  temperature limited to 5.000000e+03 on 1012 faces

 absolute pressure limited to 5.000000e+10 in 420983 cells on zone 1386 

 turbulent viscosity limited to viscosity ratio of 1.000000e+05 in 413758 cells 
   215  4.5515e+10  3.4735e-03  4.1867e-02  4.0088e-02  2.6769e-02  9.9841e-01  4.9622e-01  0:12:17  285
 temperature limited to 1.000000e+00 in 90 cells on zone 1386 in domain 1
  temperature limited to 5.000000e+03 in 2763 cells on zone 1386 in domain 1
  temperature limited to 5.000000e+03 on 1038 faces

 absolute pressure limited to 5.000000e+10 in 420936 cells on zone 1386 

 turbulent viscosity limited to viscosity ratio of 1.000000e+05 in 414153 cells 
   216  4.5091e+10  3.5331e-03  4.0934e-02  4.0617e-02  2.6496e-02  9.9698e-01  4.9477e-01  0:12:18  284
 temperature limited to 1.000000e+00 in 102 cells on zone 1386 in domain 1
  temperature limited to 5.000000e+03 in 2780 cells on zone 1386 in domain 1
  temperature limited to 5.000000e+03 on 1081 faces

 absolute pressure limited to 5.000000e+10 in 420978 cells on zone 1386 

 turbulent viscosity limited to viscosity ratio of 1.000000e+05 in 414068 cells 
   217  4.9013e+10  3.6322e-03  4.1959e-02  4.3810e-02  2.6654e-02  9.9297e-01  4.9091e-01  0:12:15  283
 temperature limited to 1.000000e+00 in 119 cells on zone 1386 in domain 1
  temperature limited to 5.000000e+03 in 2820 cells on zone 1386 in domain 1
  temperature limited to 5.000000e+03 on 1110 faces

 absolute pressure limited to 5.000000e+10 in 420939 cells on zone 1386 

 turbulent viscosity limited to viscosity ratio of 1.000000e+05 in 414178 cells 
   218  5.0362e+10  3.4853e-03  4.3145e-02  4.4065e-02  2.6337e-02  9.9728e-01  4.9336e-01  0:12:11  282
 temperature limited to 1.000000e+00 in 129 cells on zone 1386 in domain 1
  temperature limited to 5.000000e+03 in 3178 cells on zone 1386 in domain 1
  temperature limited to 5.000000e+03 on 1163 faces

 absolute pressure limited to 5.000000e+10 in 420963 cells on zone 1386 

 turbulent viscosity limited to viscosity ratio of 1.000000e+05 in 413991 cells 
   219  5.0658e+10  3.2679e-03  4.5516e-02  4.1270e-02  2.4590e-02  9.9384e-01  4.8902e-01  0:12:07  281
 temperature limited to 1.000000e+00 in 147 cells on zone 1386 in domain 1
  temperature limited to 5.000000e+03 in 3438 cells on zone 1386 in domain 1
  temperature limited to 5.000000e+03 on 1218 faces

 absolute pressure limited to 5.000000e+10 in 420980 cells on zone 1386 

 turbulent viscosity limited to viscosity ratio of 1.000000e+05 in 413933 cells 
   220  5.0506e+10  3.4917e-03  4.3407e-02  3.8311e-02  2.4733e-02  9.9775e-01  4.9466e-01  0:12:04  280
 temperature limited to 1.000000e+00 in 164 cells on zone 1386 in domain 1
  temperature limited to 5.000000e+03 in 3279 cells on zone 1386 in domain 1
  temperature limited to 5.000000e+03 on 1271 faces

 absolute pressure limited to 5.000000e+10 in 420954 cells on zone 1386 

 turbulent viscosity limited to viscosity ratio of 1.000000e+05 in 413833 cells 

  iter  continuity  x-velocity  y-velocity  z-velocity      energy           k       omega     time/iter
   221  5.0575e+10  3.3771e-03  4.1073e-02  3.7686e-02  2.6570e-02  9.9602e-01  4.9375e-01  0:12:03  279
 temperature limited to 1.000000e+00 in 182 cells on zone 1386 in domain 1
  temperature limited to 5.000000e+03 in 3685 cells on zone 1386 in domain 1
  temperature limited to 5.000000e+03 on 1289 faces

 absolute pressure limited to 5.000000e+10 in 420963 cells on zone 1386 

 turbulent viscosity limited to viscosity ratio of 1.000000e+05 in 414067 cells 
   222  5.0518e+10  3.3225e-03  4.5715e-02  3.8490e-02  2.5592e-02  9.9980e-01  4.9960e-01  0:11:59  278
 temperature limited to 1.000000e+00 in 200 cells on zone 1386 in domain 1
  temperature limited to 5.000000e+03 in 3861 cells on zone 1386 in domain 1
  temperature limited to 5.000000e+03 on 1325 faces

 absolute pressure limited to 5.000000e+10 in 420966 cells on zone 1386 

 turbulent viscosity limited to viscosity ratio of 1.000000e+05 in 413882 cells 
   223  5.1717e+10  3.7096e-03  4.4634e-02  3.7857e-02  2.7027e-02  9.9977e-01  4.9963e-01  0:11:59  277
 temperature limited to 1.000000e+00 in 228 cells on zone 1386 in domain 1
  temperature limited to 5.000000e+03 in 2199 cells on zone 1386 in domain 1
  temperature limited to 5.000000e+03 on 1263 faces

 absolute pressure limited to 5.000000e+10 in 420955 cells on zone 1386 

 turbulent viscosity limited to viscosity ratio of 1.000000e+05 in 414068 cells 
   224  5.4204e+10  3.4027e-03  4.3953e-02  4.2000e-02  2.5892e-02  9.9879e-01  4.9906e-01  0:11:56  276
 temperature limited to 1.000000e+00 in 245 cells on zone 1386 in domain 1
  temperature limited to 5.000000e+03 in 3269 cells on zone 1386 in domain 1
  temperature limited to 5.000000e+03 on 1246 faces

 absolute pressure limited to 5.000000e+10 in 420976 cells on zone 1386 

 turbulent viscosity limited to viscosity ratio of 1.000000e+05 in 414149 cells 
   225  5.4392e+10  3.4417e-03  4.3509e-02  3.9756e-02  2.5866e-02  9.9842e-01  4.9872e-01  0:11:54  275
 temperature limited to 1.000000e+00 in 110 cells on zone 1386 in domain 1
  temperature limited to 5.000000e+03 in 1547 cells on zone 1386 in domain 1
  temperature limited to 5.000000e+03 on 1120 faces

 absolute pressure limited to 5.000000e+10 in 420990 cells on zone 1386 

 turbulent viscosity limited to viscosity ratio of 1.000000e+05 in 414254 cells 
   226  5.4667e+10  3.2882e-03  4.4888e-02  3.9606e-02  2.3432e-02  9.9861e-01  4.9856e-01  0:11:50  274
 temperature limited to 1.000000e+00 in 199 cells on zone 1386 in domain 1
  temperature limited to 5.000000e+03 in 1246 cells on zone 1386 in domain 1
  temperature limited to 5.000000e+03 on 693 faces

 absolute pressure limited to 5.000000e+10 in 420972 cells on zone 1386 

 turbulent viscosity limited to viscosity ratio of 1.000000e+05 in 414365 cells 
   227  5.5225e+10  3.2563e-03  4.4054e-02  3.9652e-02  2.3255e-02  9.9737e-01  4.9745e-01  0:11:45  273
 temperature limited to 1.000000e+00 in 192 cells on zone 1386 in domain 1
  temperature limited to 5.000000e+03 in 2964 cells on zone 1386 in domain 1
  temperature limited to 5.000000e+03 on 527 faces

 absolute pressure limited to 5.000000e+10 in 421001 cells on zone 1386 

 turbulent viscosity limited to viscosity ratio of 1.000000e+05 in 414229 cells 
   228  5.5884e+10  3.1428e-03  4.1140e-02  3.9077e-02  2.3740e-02  9.9875e-01  4.9775e-01  0:11:44  272
 temperature limited to 1.000000e+00 in 79 cells on zone 1386 in domain 1
  temperature limited to 5.000000e+03 in 1052 cells on zone 1386 in domain 1
  temperature limited to 5.000000e+03 on 493 faces

 absolute pressure limited to 5.000000e+10 in 420975 cells on zone 1386 

 turbulent viscosity limited to viscosity ratio of 1.000000e+05 in 414568 cells 
   229  5.3943e+10  3.2234e-03  4.3291e-02  3.8734e-02  2.5478e-02  9.9617e-01  4.9619e-01  0:11:43  271
 temperature limited to 1.000000e+00 in 242 cells on zone 1386 in domain 1
  temperature limited to 5.000000e+03 in 1082 cells on zone 1386 in domain 1
  temperature limited to 5.000000e+03 on 402 faces

 absolute pressure limited to 5.000000e+10 in 420969 cells on zone 1386 

 turbulent viscosity limited to viscosity ratio of 1.000000e+05 in 414489 cells 
   230  5.3902e+10  3.1757e-03  4.0894e-02  4.0815e-02  2.5957e-02  9.9788e-01  4.9679e-01  0:11:41  270
 temperature limited to 1.000000e+00 in 154 cells on zone 1386 in domain 1
  temperature limited to 5.000000e+03 in 1255 cells on zone 1386 in domain 1
  temperature limited to 5.000000e+03 on 407 faces

 absolute pressure limited to 5.000000e+10 in 420964 cells on zone 1386 

 turbulent viscosity limited to viscosity ratio of 1.000000e+05 in 414688 cells 
   231  5.7235e+10  3.1919e-03  3.9861e-02  4.3550e-02  2.7544e-02  9.9985e-01  4.9897e-01  0:11:38  269
 temperature limited to 1.000000e+00 in 287 cells on zone 1386 in domain 1
  temperature limited to 5.000000e+03 in 1605 cells on zone 1386 in domain 1
  temperature limited to 5.000000e+03 on 457 faces

 absolute pressure limited to 5.000000e+10 in 420961 cells on zone 1386 

 turbulent viscosity limited to viscosity ratio of 1.000000e+05 in 414588 cells 

  iter  continuity  x-velocity  y-velocity  z-velocity      energy           k       omega     time/iter
   232  5.9518e+10  3.1411e-03  4.4028e-02  4.3811e-02  2.7101e-02  9.9941e-01  4.9789e-01  0:11:36  268
 temperature limited to 1.000000e+00 in 14 cells on zone 1386 in domain 1
  temperature limited to 5.000000e+03 in 634 cells on zone 1386 in domain 1
  temperature limited to 5.000000e+03 on 397 faces

 absolute pressure limited to 5.000000e+10 in 420993 cells on zone 1386 

 turbulent viscosity limited to viscosity ratio of 1.000000e+05 in 414470 cells 
   233  6.3652e+10  2.9337e-03  4.3774e-02  4.1952e-02  2.7120e-02  9.9968e-01  4.9945e-01  0:11:32  267
 temperature limited to 1.000000e+00 in 315 cells on zone 1386 in domain 1
  temperature limited to 5.000000e+03 in 735 cells on zone 1386 in domain 1
  temperature limited to 5.000000e+03 on 296 faces

 absolute pressure limited to 5.000000e+10 in 420950 cells on zone 1386 

 turbulent viscosity limited to viscosity ratio of 1.000000e+05 in 414485 cells 
   234  6.4466e+10  2.7791e-03  4.5796e-02  4.0948e-02  2.5551e-02  9.9864e-01  4.9867e-01  0:11:31  266
 temperature limited to 1.000000e+00 in 54 cells on zone 1386 in domain 1
  temperature limited to 5.000000e+03 in 525 cells on zone 1386 in domain 1
  temperature limited to 5.000000e+03 on 277 faces

 absolute pressure limited to 5.000000e+10 in 420972 cells on zone 1386 

 turbulent viscosity limited to viscosity ratio of 1.000000e+05 in 414761 cells 
   235  6.1876e+10  2.6537e-03  4.5689e-02  4.0011e-02  2.4841e-02  9.9918e-01  4.9843e-01  0:11:27  265
 temperature limited to 1.000000e+00 in 344 cells on zone 1386 in domain 1
  temperature limited to 5.000000e+03 in 719 cells on zone 1386 in domain 1
  temperature limited to 5.000000e+03 on 264 faces

 absolute pressure limited to 5.000000e+10 in 420983 cells on zone 1386 

 turbulent viscosity limited to viscosity ratio of 1.000000e+05 in 414444 cells 
   236  6.7010e+10  2.8798e-03  4.5414e-02  3.7437e-02  2.4276e-02  9.9758e-01  4.9675e-01  0:11:26  264
 temperature limited to 1.000000e+00 in 145 cells on zone 1386 in domain 1
  temperature limited to 5.000000e+03 on 134 faces

 absolute pressure limited to 5.000000e+10 in 420932 cells on zone 1386 

 turbulent viscosity limited to viscosity ratio of 1.000000e+05 in 414348 cells 
   237  6.9416e+10  2.7901e-03  4.2914e-02  4.0978e-02  2.5879e-02  9.9955e-01  4.9698e-01  0:11:25  263
 temperature limited to 1.000000e+00 in 559 cells on zone 1386 in domain 1
  temperature limited to 5.000000e+03 in 614 cells on zone 1386 in domain 1
 
 absolute pressure limited to 5.000000e+10 in 420961 cells on zone 1386 

 turbulent viscosity limited to viscosity ratio of 1.000000e+05 in 414251 cells 
   238  7.0050e+10  2.7099e-03  4.2153e-02  4.2598e-02  2.4740e-02  9.9826e-01  4.9602e-01  0:11:21  262
 temperature limited to 1.000000e+00 in 153 cells on zone 1386 in domain 1
  temperature limited to 5.000000e+03 in 562 cells on zone 1386 in domain 1
 
 absolute pressure limited to 5.000000e+10 in 420991 cells on zone 1386 

 turbulent viscosity limited to viscosity ratio of 1.000000e+05 in 413992 cells 
   239  7.8244e+10  2.8146e-03  4.0434e-02  4.1619e-02  2.4070e-02  9.9590e-01  4.9256e-01  0:11:19  261
 temperature limited to 1.000000e+00 in 650 cells on zone 1386 in domain 1
  temperature limited to 5.000000e+03 in 676 cells on zone 1386 in domain 1
  temperature limited to 5.000000e+03 on 38 faces

 absolute pressure limited to 5.000000e+10 in 420962 cells on zone 1386 

 turbulent viscosity limited to viscosity ratio of 1.000000e+05 in 412777 cells 
   240  7.6924e+10  2.5896e-03  4.0241e-02  3.8185e-02  2.2153e-02  9.9501e-01  4.9160e-01  0:11:18  260
 temperature limited to 1.000000e+00 in 744 cells on zone 1386 in domain 1
  temperature limited to 5.000000e+03 on 22 faces

 absolute pressure limited to 5.000000e+10 in 420971 cells on zone 1386 

 turbulent viscosity limited to viscosity ratio of 1.000000e+05 in 412845 cells 
   241  7.4739e+10  2.6179e-03  4.0688e-02  3.5794e-02  2.3589e-02  9.9754e-01  4.9468e-01  0:11:15  259
 temperature limited to 1.000000e+00 in 1057 cells on zone 1386 in domain 1
  temperature limited to 5.000000e+03 in 8 cells on zone 1386 in domain 1
 
 absolute pressure limited to 5.000000e+10 in 420961 cells on zone 1386 

 turbulent viscosity limited to viscosity ratio of 1.000000e+05 in 413264 cells 
   242  7.9558e+10  2.5676e-03  4.1916e-02  3.7229e-02  2.3947e-02  9.9868e-01  4.9558e-01  0:11:12  258
 temperature limited to 1.000000e+00 in 1563 cells on zone 1386 in domain 1
 
 absolute pressure limited to 5.000000e+10 in 420994 cells on zone 1386 

 turbulent viscosity limited to viscosity ratio of 1.000000e+05 in 414341 cells 

  iter  continuity  x-velocity  y-velocity  z-velocity      energy           k       omega     time/iter
   243  8.2926e+10  2.8323e-03  4.2244e-02  3.9468e-02  3.0965e-02  9.9841e-01  4.9581e-01  0:10:52  257
 temperature limited to 1.000000e+00 in 2291 cells on zone 1386 in domain 1
 
 absolute pressure limited to 5.000000e+10 in 421130 cells on zone 1386 

 turbulent viscosity limited to viscosity ratio of 1.000000e+05 in 414976 cells 
   244  1.0232e+11  3.0459e-03  4.0359e-02  4.0332e-02  2.9038e-02  9.9500e-01  4.9449e-01  0:10:34  256
 temperature limited to 1.000000e+00 in 2015 cells on zone 1386 in domain 1
 
 absolute pressure limited to 5.000000e+10 in 421162 cells on zone 1386 

 turbulent viscosity limited to viscosity ratio of 1.000000e+05 in 415442 cells 
   245  1.3388e+11  2.1285e-03  4.3158e-02  4.4037e-02  2.1484e-02  9.8267e-01  4.8711e-01  0:10:19  255
 temperature limited to 1.000000e+00 in 2584 cells on zone 1386 in domain 1
 
 absolute pressure limited to 5.000000e+10 in 421160 cells on zone 1386 

 turbulent viscosity limited to viscosity ratio of 1.000000e+05 in 415093 cells 
   246  1.4014e+11  1.7490e-03  4.3763e-02  4.2371e-02  1.9260e-02  9.8781e-01  4.8599e-01  0:10:11  254
 temperature limited to 1.000000e+00 in 2052 cells on zone 1386 in domain 1
 
 absolute pressure limited to 5.000000e+10 in 421191 cells on zone 1386 

 turbulent viscosity limited to viscosity ratio of 1.000000e+05 in 414597 cells 
   247  1.4729e+11  1.7909e-03  4.2282e-02  4.1885e-02  1.7167e-02  9.8926e-01  4.8892e-01  0:10:06  253
 temperature limited to 1.000000e+00 in 1793 cells on zone 1386 in domain 1
 
 absolute pressure limited to 5.000000e+10 in 421192 cells on zone 1386 

 turbulent viscosity limited to viscosity ratio of 1.000000e+05 in 413406 cells 
   248  1.6439e+11  1.8879e-03  3.9747e-02  3.8032e-02  1.6128e-02  9.7442e-01  4.8285e-01  0:09:58  252
 temperature limited to 1.000000e+00 in 2616 cells on zone 1386 in domain 1
 
 absolute pressure limited to 5.000000e+10 in 421168 cells on zone 1386 

 turbulent viscosity limited to viscosity ratio of 1.000000e+05 in 412607 cells 
   249  1.5703e+11  1.6733e-03  3.9303e-02  3.8512e-02  1.6271e-02  9.3008e-01  4.6628e-01  0:09:51  251
 temperature limited to 1.000000e+00 in 3068 cells on zone 1386 in domain 1
 
 absolute pressure limited to 5.000000e+10 in 421184 cells on zone 1386 

 turbulent viscosity limited to viscosity ratio of 1.000000e+05 in 412688 cells 
   250  1.5935e+11  1.7300e-03  3.8019e-02  3.8312e-02  1.7233e-02  9.0253e-01  4.5883e-01  0:09:41  250
 temperature limited to 1.000000e+00 in 2154 cells on zone 1386 in domain 1
 
 absolute pressure limited to 5.000000e+10 in 421149 cells on zone 1386 

 turbulent viscosity limited to viscosity ratio of 1.000000e+05 in 413891 cells 
   251  1.7965e+11  1.9003e-03  3.7159e-02  3.9285e-02  1.7699e-02  9.6698e-01  4.6537e-01  0:09:35  249
 temperature limited to 1.000000e+00 in 2075 cells on zone 1386 in domain 1
 
 absolute pressure limited to 5.000000e+10 in 421143 cells on zone 1386 

 turbulent viscosity limited to viscosity ratio of 1.000000e+05 in 413778 cells 
   252  1.9030e+11  1.7222e-03  3.8726e-02  4.3130e-02  1.8114e-02  9.9905e-01  4.9899e-01  0:09:32  248
 temperature limited to 1.000000e+00 in 3260 cells on zone 1386 in domain 1
 
 absolute pressure limited to 5.000000e+10 in 421160 cells on zone 1386 

 turbulent viscosity limited to viscosity ratio of 1.000000e+05 in 413540 cells 
   253  2.0413e+11  1.8429e-03  3.9634e-02  4.6511e-02  1.8074e-02  9.9417e-01  4.9651e-01  0:09:28  247
 temperature limited to 1.000000e+00 in 2983 cells on zone 1386 in domain 1
 
 absolute pressure limited to 5.000000e+10 in 421147 cells on zone 1386 

 turbulent viscosity limited to viscosity ratio of 1.000000e+05 in 413403 cells 

  iter  continuity  x-velocity  y-velocity  z-velocity      energy           k       omega     time/iter
   254  2.4168e+11  1.7753e-03  4.1839e-02  4.6094e-02  1.6556e-02  9.7885e-01  4.9255e-01  0:09:23  246
 temperature limited to 1.000000e+00 in 3373 cells on zone 1386 in domain 1
 
 absolute pressure limited to 5.000000e+10 in 421134 cells on zone 1386 

 turbulent viscosity limited to viscosity ratio of 1.000000e+05 in 413971 cells 
   255  2.4629e+11  1.5784e-03  4.3467e-02  4.3406e-02  1.7306e-02  9.6455e-01  4.8402e-01  0:09:16  245
 temperature limited to 1.000000e+00 in 3423 cells on zone 1386 in domain 1
 
 absolute pressure limited to 5.000000e+10 in 421146 cells on zone 1386 

 turbulent viscosity limited to viscosity ratio of 1.000000e+05 in 414704 cells 
   256  2.6595e+11  1.7896e-03  4.1927e-02  4.3113e-02  1.8776e-02  9.9544e-01  4.9525e-01  0:09:12  244
 temperature limited to 1.000000e+00 in 487 cells on zone 1386 in domain 1
 
 absolute pressure limited to 5.000000e+10 in 421130 cells on zone 1386 

 turbulent viscosity limited to viscosity ratio of 1.000000e+05 in 415857 cells 
   257  3.0787e+11  1.6519e-03  4.1803e-02  4.2519e-02  2.0090e-02  9.8369e-01  4.9008e-01  0:09:11  243
 temperature limited to 1.000000e+00 in 226 cells on zone 1386 in domain 1
 
 absolute pressure limited to 5.000000e+10 in 421143 cells on zone 1386 

 turbulent viscosity limited to viscosity ratio of 1.000000e+05 in 415853 cells 
   258  3.0656e+11  1.4821e-03  4.3219e-02  4.6383e-02  1.9640e-02  9.8880e-01  4.8933e-01  0:09:09  242
 temperature limited to 1.000000e+00 in 854 cells on zone 1386 in domain 1
 
 absolute pressure limited to 5.000000e+10 in 421104 cells on zone 1386 

 turbulent viscosity limited to viscosity ratio of 1.000000e+05 in 415816 cells 
   259  3.2066e+11  1.6581e-03  4.3048e-02  4.4930e-02  1.8519e-02  9.8704e-01  4.8811e-01  0:09:06  241
 temperature limited to 1.000000e+00 in 309 cells on zone 1386 in domain 1
 
 absolute pressure limited to 5.000000e+10 in 421155 cells on zone 1386 

 turbulent viscosity limited to viscosity ratio of 1.000000e+05 in 415487 cells 
   260  3.5134e+11  1.5730e-03  4.2457e-02  4.5583e-02  1.7215e-02  9.8491e-01  4.8463e-01  0:09:02  240
 temperature limited to 1.000000e+00 in 384 cells on zone 1386 in domain 1
 
 absolute pressure limited to 5.000000e+10 in 421141 cells on zone 1386 

 turbulent viscosity limited to viscosity ratio of 1.000000e+05 in 415074 cells 
   261  3.7082e+11  1.5381e-03  4.3574e-02  4.5893e-02  1.7849e-02  9.8931e-01  4.8852e-01  0:09:00  239
 temperature limited to 1.000000e+00 in 378 cells on zone 1386 in domain 1
 
 absolute pressure limited to 5.000000e+10 in 421142 cells on zone 1386 

 turbulent viscosity limited to viscosity ratio of 1.000000e+05 in 415345 cells 
   262  3.9319e+11  1.3814e-03  4.3321e-02  4.5981e-02  1.8943e-02  9.9346e-01  4.9190e-01  0:08:58  238
 temperature limited to 1.000000e+00 in 196 cells on zone 1386 in domain 1
 
 absolute pressure limited to 5.000000e+10 in 421147 cells on zone 1386 

 turbulent viscosity limited to viscosity ratio of 1.000000e+05 in 415761 cells 
   263  4.2613e+11  1.3256e-03  4.4327e-02  4.7731e-02  1.8544e-02  9.9235e-01  4.9140e-01  0:08:56  237

 absolute pressure limited to 5.000000e+10 in 421122 cells on zone 1386 

 turbulent viscosity limited to viscosity ratio of 1.000000e+05 in 416140 cells 
[...]

  iter  continuity  x-velocity  y-velocity  z-velocity      energy           k       omega     time/iter
   441  3.5332e+11  7.1563e-04  4.0056e-02  3.9420e-02  1.5554e-02  9.9501e-01  4.9635e-01  0:02:27   59
 temperature limited to 5.000000e+03 in 2471 cells on zone 1386 in domain 1
  temperature limited to 5.000000e+03 on 917 faces

 absolute pressure limited to 5.000000e+10 in 420889 cells on zone 1386 

 turbulent viscosity limited to viscosity ratio of 1.000000e+05 in 415625 cells 
   442  3.4315e+11  8.3970e-04  4.1594e-02  4.0592e-02  1.4690e-02  9.8955e-01  4.9285e-01  0:02:24   58
 temperature limited to 5.000000e+03 in 2189 cells on zone 1386 in domain 1
  temperature limited to 5.000000e+03 on 614 faces

 absolute pressure limited to 5.000000e+10 in 420876 cells on zone 1386 

 turbulent viscosity limited to viscosity ratio of 1.000000e+05 in 415299 cells 
   443  2.9273e+11  8.7717e-04  3.6486e-02  3.8466e-02  1.5849e-02  9.7818e-01  4.8935e-01  0:02:22   57
 temperature limited to 5.000000e+03 in 954 cells on zone 1386 in domain 1
  temperature limited to 5.000000e+03 on 317 faces

 absolute pressure limited to 5.000000e+10 in 420930 cells on zone 1386 

 turbulent viscosity limited to viscosity ratio of 1.000000e+05 in 415119 cells 
   444  3.1191e+11  1.1379e-03  3.9976e-02  3.7792e-02  1.8160e-02  9.9795e-01  4.9097e-01  0:02:21   56
 temperature limited to 5.000000e+03 in 406 cells on zone 1386 in domain 1
  temperature limited to 5.000000e+03 on 12 faces

 absolute pressure limited to 5.000000e+10 in 420868 cells on zone 1386 

 turbulent viscosity limited to viscosity ratio of 1.000000e+05 in 415262 cells 
   445  3.0326e+11  1.0254e-03  4.3294e-02  3.7965e-02  2.1496e-02  1.0005e+00  4.9823e-01  0:02:16   55
 temperature limited to 5.000000e+03 in 39 cells on zone 1386 in domain 1
 
 absolute pressure limited to 5.000000e+10 in 421036 cells on zone 1386 

 turbulent viscosity limited to viscosity ratio of 1.000000e+05 in 415576 cells 
   446  2.9006e+11  1.2568e-03  3.6187e-02  3.6466e-02  1.9248e-02  9.9908e-01  4.9807e-01  0:02:15   54

 absolute pressure limited to 5.000000e+10 in 421044 cells on zone 1386 

 turbulent viscosity limited to viscosity ratio of 1.000000e+05 in 415657 cells 
   447  3.1959e+11  9.5272e-04  4.1163e-02  3.9626e-02  2.0191e-02  9.9628e-01  4.9672e-01  0:02:10   53
 temperature limited to 5.000000e+03 in 37 cells on zone 1386 in domain 1
 
 absolute pressure limited to 5.000000e+10 in 421072 cells on zone 1386 

 turbulent viscosity limited to viscosity ratio of 1.000000e+05 in 415793 cells 
   448  3.0241e+11  1.2355e-03  4.2433e-02  3.9499e-02  2.0817e-02  9.9118e-01  4.9422e-01  0:02:05   52
 temperature limited to 5.000000e+03 in 339 cells on zone 1386 in domain 1
 
 absolute pressure limited to 5.000000e+10 in 421104 cells on zone 1386 

 turbulent viscosity limited to viscosity ratio of 1.000000e+05 in 415777 cells 
   449  3.1031e+11  9.7337e-04  4.3137e-02  4.7065e-02  1.6051e-02  9.7327e-01  4.8453e-01  0:02:04   51
 temperature limited to 5.000000e+03 in 16 cells on zone 1386 in domain 1
 
 absolute pressure limited to 5.000000e+10 in 421018 cells on zone 1386 

 turbulent viscosity limited to viscosity ratio of 1.000000e+05 in 415993 cells 
   450  3.1473e+11  8.8275e-04  4.0506e-02  4.5954e-02  1.8132e-02  9.8285e-01  4.8482e-01  0:02:00   50

 absolute pressure limited to 5.000000e+10 in 421081 cells on zone 1386 

 turbulent viscosity limited to viscosity ratio of 1.000000e+05 in 415842 cells 
   451  3.1081e+11  1.1978e-03  4.2378e-02  4.0016e-02  1.4776e-02  9.8727e-01  4.8353e-01  0:01:59   49

 absolute pressure limited to 5.000000e+10 in 421057 cells on zone 1386 

 turbulent viscosity limited to viscosity ratio of 1.000000e+05 in 416024 cells 

  iter  continuity  x-velocity  y-velocity  z-velocity      energy           k       omega     time/iter
   452  3.0327e+11  9.5633e-04  3.8639e-02  4.1800e-02  1.6108e-02  9.8480e-01  4.8159e-01  0:01:58   48

 absolute pressure limited to 5.000000e+10 in 420865 cells on zone 1386 

 turbulent viscosity limited to viscosity ratio of 1.000000e+05 in 415549 cells 
   453  2.5231e+11  1.0560e-03  4.0128e-02  4.0214e-02  1.4323e-02  9.8630e-01  4.8013e-01  0:01:56   47

 absolute pressure limited to 5.000000e+10 in 420880 cells on zone 1386 

 turbulent viscosity limited to viscosity ratio of 1.000000e+05 in 415545 cells 
   454  2.2379e+11  1.1987e-03  4.1226e-02  3.7816e-02  1.7525e-02  9.9597e-01  4.8747e-01  0:01:55   46

 absolute pressure limited to 5.000000e+10 in 420964 cells on zone 1386 

 turbulent viscosity limited to viscosity ratio of 1.000000e+05 in 415051 cells 
   455  2.5019e+11  1.4617e-03  3.9512e-02  4.2617e-02  2.1328e-02  9.9914e-01  4.9469e-01  0:01:53   45

 absolute pressure limited to 5.000000e+10 in 420841 cells on zone 1386 

 turbulent viscosity limited to viscosity ratio of 1.000000e+05 in 415326 cells 
   456  2.2857e+11  1.3709e-03  4.7332e-02  4.1895e-02  2.3964e-02  1.0015e+00  4.9462e-01  0:01:48   44

 absolute pressure limited to 5.000000e+10 in 421057 cells on zone 1386 

 turbulent viscosity limited to viscosity ratio of 1.000000e+05 in 415284 cells 
   457  2.3053e+11  1.5660e-03  4.0682e-02  4.3155e-02  2.1141e-02  9.9021e-01  4.8633e-01  0:01:46   43

 absolute pressure limited to 5.000000e+10 in 421030 cells on zone 1386 

 turbulent viscosity limited to viscosity ratio of 1.000000e+05 in 415002 cells 
   458  2.6010e+11  1.0072e-03  3.9853e-02  4.7883e-02  2.1604e-02  9.9501e-01  4.9164e-01  0:01:45   42

 absolute pressure limited to 5.000000e+10 in 420897 cells on zone 1386 

 turbulent viscosity limited to viscosity ratio of 1.000000e+05 in 415197 cells 
   459  2.3791e+11  1.0969e-03  4.2302e-02  4.6095e-02  2.2664e-02  9.9241e-01  4.9126e-01  0:01:40   41

 absolute pressure limited to 5.000000e+10 in 421086 cells on zone 1386 

 turbulent viscosity limited to viscosity ratio of 1.000000e+05 in 415493 cells 
   460  2.4481e+11  1.4519e-03  3.6582e-02  4.7077e-02  1.6545e-02  9.9415e-01  4.9132e-01  0:01:39   40

 absolute pressure limited to 5.000000e+10 in 421049 cells on zone 1386 

 turbulent viscosity limited to viscosity ratio of 1.000000e+05 in 415275 cells 
   461  2.5403e+11  1.0405e-03  3.6339e-02  4.7459e-02  1.6607e-02  9.9477e-01  4.9218e-01  0:01:37   39
 temperature limited to 5.000000e+03 in 114 cells on zone 1386 in domain 1
 
 absolute pressure limited to 5.000000e+10 in 420891 cells on zone 1386 

 turbulent viscosity limited to viscosity ratio of 1.000000e+05 in 415367 cells 
   462  2.4215e+11  1.2975e-03  4.0297e-02  4.2461e-02  1.8248e-02  9.9354e-01  4.8953e-01  0:01:33   38
 temperature limited to 5.000000e+03 in 44 cells on zone 1386 in domain 1
 
 absolute pressure limited to 5.000000e+10 in 421084 cells on zone 1386 

 turbulent viscosity limited to viscosity ratio of 1.000000e+05 in 415321 cells 

  iter  continuity  x-velocity  y-velocity  z-velocity      energy           k       omega     time/iter
   463  2.3373e+11  1.5068e-03  3.9427e-02  3.7920e-02  1.7473e-02  9.9658e-01  4.9409e-01  0:01:31   37
 temperature limited to 5.000000e+03 in 13 cells on zone 1386 in domain 1
 
 absolute pressure limited to 5.000000e+10 in 421053 cells on zone 1386 

 turbulent viscosity limited to viscosity ratio of 1.000000e+05 in 415581 cells 
   464  2.3095e+11  1.1232e-03  4.0452e-02  4.1841e-02  2.1384e-02  9.9773e-01  4.9683e-01  0:01:27   36
 temperature limited to 5.000000e+03 in 203 cells on zone 1386 in domain 1
 
 absolute pressure limited to 5.000000e+10 in 421083 cells on zone 1386 

 turbulent viscosity limited to viscosity ratio of 1.000000e+05 in 415792 cells 
   465  2.3529e+11  1.5189e-03  4.1076e-02  4.1129e-02  2.1610e-02  9.9542e-01  4.9562e-01  0:01:24   35

 absolute pressure limited to 5.000000e+10 in 421121 cells on zone 1386 

 turbulent viscosity limited to viscosity ratio of 1.000000e+05 in 415874 cells 
   466  2.3361e+11  1.0637e-03  4.3285e-02  4.0205e-02  1.8636e-02  9.7853e-01  4.8878e-01  0:01:23   34
 temperature limited to 5.000000e+03 in 11 cells on zone 1386 in domain 1
 
 absolute pressure limited to 5.000000e+10 in 420987 cells on zone 1386 

 turbulent viscosity limited to viscosity ratio of 1.000000e+05 in 415830 cells 
   467  2.1071e+11  1.0967e-03  4.1959e-02  4.0866e-02  1.9416e-02  9.8320e-01  4.8715e-01  0:01:21   33
 temperature limited to 5.000000e+03 in 22 cells on zone 1386 in domain 1
 
 absolute pressure limited to 5.000000e+10 in 420930 cells on zone 1386 

 turbulent viscosity limited to viscosity ratio of 1.000000e+05 in 415405 cells 
   468  1.8619e+11  1.2644e-03  4.1196e-02  4.1694e-02  2.2208e-02  9.9727e-01  4.9547e-01  0:01:20   32
 temperature limited to 5.000000e+03 in 24 cells on zone 1386 in domain 1
  temperature limited to 5.000000e+03 on 1 faces

 absolute pressure limited to 5.000000e+10 in 420957 cells on zone 1386 

 turbulent viscosity limited to viscosity ratio of 1.000000e+05 in 415025 cells 
   469  1.9368e+11  1.3973e-03  4.1140e-02  4.6311e-02  2.4827e-02  9.9971e-01  4.9913e-01  0:01:18   31
 temperature limited to 5.000000e+03 on 1 faces

 absolute pressure limited to 5.000000e+10 in 420889 cells on zone 1386 

 turbulent viscosity limited to viscosity ratio of 1.000000e+05 in 415097 cells 
   470  1.8383e+11  1.4822e-03  4.3137e-02  4.8145e-02  2.3778e-02  9.9836e-01  4.9745e-01  0:01:14   30
 temperature limited to 5.000000e+03 in 6 cells on zone 1386 in domain 1
 
 absolute pressure limited to 5.000000e+10 in 421055 cells on zone 1386 

 turbulent viscosity limited to viscosity ratio of 1.000000e+05 in 414686 cells 
   471  2.1049e+11  1.7781e-03  4.0243e-02  4.3585e-02  1.7738e-02  9.9499e-01  4.9604e-01  0:01:12   29
 temperature limited to 5.000000e+03 in 39 cells on zone 1386 in domain 1
 
 absolute pressure limited to 5.000000e+10 in 421063 cells on zone 1386 

 turbulent viscosity limited to viscosity ratio of 1.000000e+05 in 415228 cells 
   472  2.0786e+11  1.1147e-03  3.7732e-02  4.4498e-02  1.9888e-02  9.9561e-01  4.9436e-01  0:01:10   28

 absolute pressure limited to 5.000000e+10 in 420956 cells on zone 1386 

 turbulent viscosity limited to viscosity ratio of 1.000000e+05 in 415034 cells 
   473  1.7803e+11  1.4312e-03  3.8418e-02  4.1681e-02  2.2212e-02  9.9418e-01  4.9393e-01  0:01:06   27
 temperature limited to 5.000000e+03 in 16 cells on zone 1386 in domain 1
 
 absolute pressure limited to 5.000000e+10 in 421077 cells on zone 1386 

 turbulent viscosity limited to viscosity ratio of 1.000000e+05 in 415343 cells 

  iter  continuity  x-velocity  y-velocity  z-velocity      energy           k       omega     time/iter
   474  1.8468e+11  1.7371e-03  3.8698e-02  3.8475e-02  1.8861e-02  9.8895e-01  4.9023e-01  0:01:04   26

 absolute pressure limited to 5.000000e+10 in 421064 cells on zone 1386 

 turbulent viscosity limited to viscosity ratio of 1.000000e+05 in 415509 cells 
   475  1.8528e+11  1.4053e-03  4.1351e-02  4.0775e-02  2.1900e-02  9.9619e-01  4.9475e-01  0:01:00   25
 temperature limited to 5.000000e+03 in 25 cells on zone 1386 in domain 1
 
 absolute pressure limited to 5.000000e+10 in 421106 cells on zone 1386 

 turbulent viscosity limited to viscosity ratio of 1.000000e+05 in 415523 cells 
   476  1.8757e+11  1.8462e-03  4.0188e-02  4.0361e-02  2.1204e-02  9.8583e-01  4.8844e-01  0:00:57   24

 absolute pressure limited to 5.000000e+10 in 421085 cells on zone 1386 

 turbulent viscosity limited to viscosity ratio of 1.000000e+05 in 415715 cells 
   477  1.8730e+11  1.3140e-03  4.1756e-02  4.2124e-02  1.7640e-02  9.8752e-01  4.8533e-01  0:00:56   23
 temperature limited to 5.000000e+03 in 41 cells on zone 1386 in domain 1
 
 absolute pressure limited to 5.000000e+10 in 421018 cells on zone 1386 

 turbulent viscosity limited to viscosity ratio of 1.000000e+05 in 415411 cells 
   478  1.6750e+11  1.2776e-03  4.2004e-02  4.1742e-02  1.7913e-02  9.7215e-01  4.7889e-01  0:00:54   22
 temperature limited to 5.000000e+03 in 168 cells on zone 1386 in domain 1
 
 absolute pressure limited to 5.000000e+10 in 420900 cells on zone 1386 

 turbulent viscosity limited to viscosity ratio of 1.000000e+05 in 415437 cells 
   479  1.4700e+11  1.5097e-03  3.9373e-02  4.0049e-02  1.8146e-02  9.7927e-01  4.7691e-01  0:00:52   21
 temperature limited to 5.000000e+03 in 255 cells on zone 1386 in domain 1
 
 absolute pressure limited to 5.000000e+10 in 420948 cells on zone 1386 

 turbulent viscosity limited to viscosity ratio of 1.000000e+05 in 415138 cells 
   480  1.5493e+11  1.5504e-03  3.9434e-02  3.8355e-02  2.3971e-02  9.9896e-01  4.9796e-01  0:00:50   20

 absolute pressure limited to 5.000000e+10 in 420924 cells on zone 1386 

 turbulent viscosity limited to viscosity ratio of 1.000000e+05 in 415562 cells 
   481  1.6683e+11  1.9213e-03  4.0116e-02  4.1133e-02  2.5978e-02  9.9987e-01  4.9914e-01  0:00:47   19
 temperature limited to 5.000000e+03 in 184 cells on zone 1386 in domain 1
 
 absolute pressure limited to 5.000000e+10 in 421064 cells on zone 1386 

 turbulent viscosity limited to viscosity ratio of 1.000000e+05 in 415489 cells 
   482  1.6043e+11  1.9543e-03  3.6810e-02  4.0202e-02  2.3347e-02  9.9763e-01  4.9719e-01  0:00:43   18
 temperature limited to 5.000000e+03 in 158 cells on zone 1386 in domain 1
 
 absolute pressure limited to 5.000000e+10 in 421128 cells on zone 1386 

 turbulent viscosity limited to viscosity ratio of 1.000000e+05 in 415704 cells 
   483  1.7996e+11  1.6618e-03  4.0140e-02  4.2331e-02  1.6416e-02  9.8945e-01  4.9239e-01  0:00:41   17
 temperature limited to 5.000000e+03 in 405 cells on zone 1386 in domain 1
  temperature limited to 5.000000e+03 on 4 faces

 absolute pressure limited to 5.000000e+10 in 421022 cells on zone 1386 

 turbulent viscosity limited to viscosity ratio of 1.000000e+05 in 415925 cells 
   484  1.7488e+11  1.3306e-03  3.8910e-02  4.0346e-02  1.9236e-02  9.8491e-01  4.8901e-01  0:00:38   16
 temperature limited to 5.000000e+03 in 756 cells on zone 1386 in domain 1
  temperature limited to 5.000000e+03 on 39 faces

 absolute pressure limited to 5.000000e+10 in 421132 cells on zone 1386 

 turbulent viscosity limited to viscosity ratio of 1.000000e+05 in 416366 cells 

  iter  continuity  x-velocity  y-velocity  z-velocity      energy           k       omega     time/iter
   485  1.6836e+11  1.9344e-03  3.6128e-02  3.7822e-02  1.8723e-02  9.5315e-01  4.7697e-01  0:00:35   15
 temperature limited to 5.000000e+03 in 113 cells on zone 1386 in domain 1
  temperature limited to 5.000000e+03 on 38 faces

 absolute pressure limited to 5.000000e+10 in 421131 cells on zone 1386 

 turbulent viscosity limited to viscosity ratio of 1.000000e+05 in 416366 cells 
   486  1.7742e+11  1.7701e-03  3.6572e-02  3.7018e-02  1.6587e-02  9.6874e-01  4.7561e-01  0:00:33   14
 temperature limited to 5.000000e+03 in 342 cells on zone 1386 in domain 1
  temperature limited to 5.000000e+03 on 12 faces

 absolute pressure limited to 5.000000e+10 in 421096 cells on zone 1386 

 turbulent viscosity limited to viscosity ratio of 1.000000e+05 in 416248 cells 
   487  1.5676e+11  1.5997e-03  3.8585e-02  3.5269e-02  1.7031e-02  9.9332e-01  4.9071e-01  0:00:30   13
 temperature limited to 5.000000e+03 on 14 faces

 absolute pressure limited to 5.000000e+10 in 421095 cells on zone 1386 

 turbulent viscosity limited to viscosity ratio of 1.000000e+05 in 415982 cells 
   488  1.4980e+11  1.6581e-03  3.8262e-02  3.3644e-02  1.7055e-02  9.7696e-01  4.8446e-01  0:00:29   12
 temperature limited to 5.000000e+03 in 183 cells on zone 1386 in domain 1
 
 absolute pressure limited to 5.000000e+10 in 421024 cells on zone 1386 

 turbulent viscosity limited to viscosity ratio of 1.000000e+05 in 415665 cells 
   489  1.4534e+11  1.4913e-03  3.8407e-02  3.6306e-02  1.9494e-02  9.6656e-01  4.7796e-01  0:00:27   11
 temperature limited to 5.000000e+03 in 373 cells on zone 1386 in domain 1
 
 absolute pressure limited to 5.000000e+10 in 420915 cells on zone 1386 

 turbulent viscosity limited to viscosity ratio of 1.000000e+05 in 415931 cells 
   490  1.2019e+11  1.9257e-03  3.6773e-02  3.6482e-02  2.4124e-02  9.9362e-01  4.9189e-01  0:00:24   10
 temperature limited to 5.000000e+03 in 131 cells on zone 1386 in domain 1
 
 absolute pressure limited to 5.000000e+10 in 421019 cells on zone 1386 

 turbulent viscosity limited to viscosity ratio of 1.000000e+05 in 415809 cells 
   491  1.1850e+11  2.3816e-03  3.5506e-02  3.4395e-02  2.0535e-02  9.8931e-01  4.8659e-01  0:00:22    9
 temperature limited to 5.000000e+03 in 9 cells on zone 1386 in domain 1
 
 absolute pressure limited to 5.000000e+10 in 421019 cells on zone 1386 

 turbulent viscosity limited to viscosity ratio of 1.000000e+05 in 415547 cells 
   492  1.1980e+11  1.7158e-03  3.9097e-02  3.7341e-02  2.1776e-02  9.9943e-01  4.9911e-01  0:00:19    8

 absolute pressure limited to 5.000000e+10 in 420939 cells on zone 1386 

 turbulent viscosity limited to viscosity ratio of 1.000000e+05 in 415721 cells 
   493  1.1614e+11  2.0537e-03  4.1567e-02  3.7882e-02  2.2648e-02  9.9804e-01  4.9855e-01  0:00:17    7
 temperature limited to 5.000000e+03 in 2 cells on zone 1386 in domain 1
 
 absolute pressure limited to 5.000000e+10 in 421061 cells on zone 1386 

 turbulent viscosity limited to viscosity ratio of 1.000000e+05 in 415780 cells 
   494  1.2692e+11  2.3441e-03  3.8873e-02  3.5861e-02  1.7522e-02  9.9212e-01  4.9587e-01  0:00:15    6
 temperature limited to 5.000000e+03 in 109 cells on zone 1386 in domain 1
 
 absolute pressure limited to 5.000000e+10 in 421037 cells on zone 1386 

 turbulent viscosity limited to viscosity ratio of 1.000000e+05 in 415454 cells 
   495  1.1960e+11  1.6017e-03  3.9364e-02  3.7825e-02  2.0102e-02  9.8617e-01  4.9246e-01  0:00:12    5
 temperature limited to 5.000000e+03 in 427 cells on zone 1386 in domain 1
 
 absolute pressure limited to 5.000000e+10 in 420926 cells on zone 1386 

 turbulent viscosity limited to viscosity ratio of 1.000000e+05 in 415681 cells 

  iter  continuity  x-velocity  y-velocity  z-velocity      energy           k       omega     time/iter
   496  1.0985e+11  2.0151e-03  3.9945e-02  3.6985e-02  2.2920e-02  9.8705e-01  4.8733e-01  0:00:10    4
 temperature limited to 5.000000e+03 in 914 cells on zone 1386 in domain 1
  temperature limited to 5.000000e+03 on 4 faces

 absolute pressure limited to 5.000000e+10 in 421098 cells on zone 1386 

 turbulent viscosity limited to viscosity ratio of 1.000000e+05 in 415674 cells 
   497  1.1944e+11  2.3985e-03  3.4870e-02  3.5427e-02  1.9877e-02  9.8564e-01  4.8487e-01  0:00:07    3
 temperature limited to 5.000000e+03 in 824 cells on zone 1386 in domain 1
  temperature limited to 5.000000e+03 on 26 faces

 absolute pressure limited to 5.000000e+10 in 421066 cells on zone 1386 

 turbulent viscosity limited to viscosity ratio of 1.000000e+05 in 415955 cells 
   498  1.2201e+11  1.6836e-03  3.9408e-02  3.6413e-02  2.1142e-02  9.6629e-01  4.7722e-01  0:00:05    2
 temperature limited to 5.000000e+03 in 1060 cells on zone 1386 in domain 1
  temperature limited to 5.000000e+03 on 57 faces

 absolute pressure limited to 5.000000e+10 in 421067 cells on zone 1386 

 turbulent viscosity limited to viscosity ratio of 1.000000e+05 in 416113 cells 
   499  1.2494e+11  2.4611e-03  3.5983e-02  3.4198e-02  2.2052e-02  9.6442e-01  4.7120e-01  0:00:02    1
 temperature limited to 5.000000e+03 in 1341 cells on zone 1386 in domain 1
  temperature limited to 5.000000e+03 on 171 faces

 absolute pressure limited to 5.000000e+10 in 421117 cells on zone 1386 

 turbulent viscosity limited to viscosity ratio of 1.000000e+05 in 416018 cells 
   500  1.2053e+11  1.7997e-03  3.8021e-02  3.7130e-02  1.7962e-02  9.8508e-01  4.8341e-01  0:00:00    0

> Halting due to end of file on input.
Auto-Transcript Stop Time:  21:06:19, 07 Jan 2025 
Total Transcript Time: 21 Minute 3 Second.

Automatic transcript closed.
