/opt/crc/a/ansys/2024R1/v241/fluent/fluent24.1.0/bin/fluent -r24.1.0 3ddp -t4 -g
/opt/crc/a/ansys/2024R1/v241/fluent/fluent24.1.0/cortex/lnamd64/cortex.24.1.0 -f fluent -g (fluent "3ddp -pshmem  -host -r24.1.0 -t4 -mpi=intel -path/opt/crc/a/ansys/2024R1/v241/fluent -ssh")

Opening input/output transcript to file "/tmp/927483.1.long/worker-241760-2237930/task.49/fluent-20241106-191952-2322797.trn".
Auto-Transcript Start Time:  19:19:52, 06 Nov 2024 
/opt/crc/a/ansys/2024R1/v241/fluent/fluent24.1.0/bin/fluent -r24.1.0 3ddp -pshmem -host -t4 -mpi=intel -path/opt/crc/a/ansys/2024R1/v241/fluent -ssh -cx d32cepyc195.crc.nd.edu:36193:43543
Starting /opt/crc/a/ansys/2024R1/v241/fluent/fluent24.1.0/lnamd64/3ddp_host/fluent.24.1.0 host -cx d32cepyc195.crc.nd.edu:36193:43543 "(list (rpsetvar (QUOTE parallel/function) "fluent 3ddp -flux -node -r24.1.0 -t4 -pshmem -mpi=intel -ssh") (rpsetvar (QUOTE parallel/rhost) "") (rpsetvar (QUOTE parallel/ruser) "") (rpsetvar (QUOTE parallel/nprocs_string) "4") (rpsetvar (QUOTE parallel/auto-spawn?) #t) (rpsetvar (QUOTE parallel/trace-level) 0) (rpsetvar (QUOTE parallel/remote-shell) 1) (rpsetvar (QUOTE parallel/path) "/opt/crc/a/ansys/2024R1/v241/fluent") (rpsetvar (QUOTE parallel/hostsfile) "") (rpsetvar (QUOTE gpuapp/devices) ""))"

              Welcome to ANSYS Fluent 2024 R1

              Copyright 1987-2024 ANSYS, Inc. All Rights Reserved.
              Unauthorized use, distribution or duplication is prohibited.
              This product is subject to U.S. laws governing export and re-export.
              For full Legal Notice, see documentation.

Build Time: Nov 22 2023 10:07:25 EST  Build Id: 10184  
 
Connected License Server List:	7504@linux5-lic.crc.nd.edu

     --------------------------------------------------------------
     This is an academic version of ANSYS FLUENT. Usage of this product
     license is limited to the terms and conditions specified in your ANSYS
     license form, additional terms section.
     --------------------------------------------------------------
Host spawning Node 0 on machine "d32cepyc195.crc.nd.edu" (unix).
/opt/crc/a/ansys/2024R1/v241/fluent/fluent24.1.0/bin/fluent -r24.1.0 3ddp -flux -node -t4 -pshmem -mpi=intel -ssh -mport 10.32.91.157:10.32.91.157:35487:0
Starting /opt/crc/a/ansys/2024R1/v241/fluent/fluent24.1.0/multiport/mpi/lnamd64/intel2021/bin/mpirun --rsh=ssh -f /tmp/fluent-appfile.etracey.2323198 -genv I_MPI_FABRICS shm -genv FLUENT_ARCH lnamd64 -genv I_MPI_DEBUG 0 -genv I_MPI_ADJUST_GATHERV 3 -genv I_MPI_ADJUST_ALLREDUCE 2 -genv I_MPI_PLATFORM auto -genv PYTHONHOME /opt/crc/a/ansys/2024R1/v241/fluent/fluent24.1.0/../../commonfiles/CPython/3_10/linx64/Release/python -genv FLUENT_PROD_DIR /opt/crc/a/ansys/2024R1/v241/fluent/fluent24.1.0 -genv FLUENT_AFFINITY 0 -genv I_MPI_PIN enable -genv KMP_AFFINITY disabled -n 4 /opt/crc/a/ansys/2024R1/v241/fluent/fluent24.1.0/lnamd64/3ddp_node/fluent_mpi.24.1.0 node -mpiw intel -pic shmem -mport 10.32.91.157:10.32.91.157:35487:0

------------------------------------------------------------------------------------
ID    Hostname              Core  O.S.      PID              Vendor                
------------------------------------------------------------------------------------
n0-3  d32cepyc195.crc.nd.e  4/64  Linux-64  2323252-2323255  AMD EPYC 7543 32-Core 
host  d32cepyc195.crc.nd.e        Linux-64  2322994          AMD EPYC 7543 32-Core 

MPI Option Selected: intel
Selected system interconnect: shared-memory
------------------------------------------------------------------------------------


Initializing SGE
Done.
Cleanup script file is /tmp/927483.1.long/worker-241760-2237930/task.49/cleanup-fluent-d32cepyc195.crc.nd.edu-2322994.sh
Key Behavioral Changes:
Fluent Guided Meshing Workflows: 
Workflow template files (.wft) are now saved by default whenever the mesh is saved. You can change the automatic creation of .wft files in Preferences. 
Journaling: 
When Ansys Fluent encounters an invalid input in a journal file that is being replayed, it now raises an error condition and aborts the journal processing. 
Turbulence: 
The value of kappa used in the Spalart-Allmaras model for interior terms was inconsistent with the reference publications of the model. Fluent historically used a value of 0.4187, but to produce results consistent with the published model, the value should be 0.41. This issue was first addressed in a previous Fluent version and access to the kappa value was given in the GUI while keeping the old default of 0.4187. In Fluent 2024 R1, the default value is now changed to 0.41. 
Turbomachinery: 
For Blade Film Cooling, you can now specify stationary holes on the surfaces of a moving/rotating cell zone in transient cases. 
Boundaries previously referred to as "casings" in the Turbo Topology definition are now referred to as "shrouds." 
Density-Based Solver: 
The High Speed Numerics have been updated to increase the robustness of the Roe-FDS numerical flux against shock-instabilities and the carbuncle phenomenon. This modification may produce a slight solution change for cases combining Roe-FDS and HSN. 
Multiphase Models: 
Modeling of open channel flows in conjunction with the translation moving reference frame (MRF) has been improved resulting in more accurate and stable solution. In addition, a solution methodology has been suggested to provide better stability for high-speed hull simulations. 
Parallel Processing: 
Using dynamic process spawning now requires that you manually specify the interconnect as -pethernet for shared memory or distributed memory without InfiniBand, and -pib.ofed for distributed memory over InfiniBand. 
Refer to the Ansys, Inc. Release Notes for a full listing of the new features included in Ansys Fluent 2024 R1. 
 +------------------------------------------------------------------+
 |                    ANSYS Product Improvement                     |
 |                                                                  |
 |   ANSYS Product Improvement Program helps improve ANSYS          |
 |   products. Participating in this program is like filling out a  |
 |   survey. Without interrupting your work, the software reports   |
 |   anonymous usage information such as errors, machine and        |
 |   solver statistics, features used, etc. to ANSYS. We never      |
 |   use the data to identify or contact you.                       |
 |   The data does NOT contain:                                     |
 |   - Any personally identifiable information including names,     |
 |     IP addresses, file names, part names, etc.                   |
 |   - Any information about your geometry or design specific       |
 |     inputs.                                                      |
 |   You can stop participation at any time. To change your         |
 |   selection go to Help >> ANSYS Product Improvement Program      |
 |   in the GUI.                                                    |
 |   For more information about the ANSYS Privacy Policy, please    |
 |   check: http://www.ansys.com/privacy                            |
 |                                                                  |
 +------------------------------------------------------------------+

> Fast-loading "/opt/crc/a/ansys/2024R1/v241/fluent/fluent24.1.0/addons/afd/lib/hdfio.bin"
Done.
WARNING: Rank:0 Machine d32cepyc195.crc.nd.edu has 75 % of RAM filled with file buffer caches.
This can cause potential performance issues. Please use -cflush flag to flush the cache. 


Reading from d32cepyc195.crc.nd.edu:"/tmp/927483.1.long/worker-241760-2237930/task.49/case.cas.h5" in NODE0 mode ...
  Reading mesh ...
      120339 cells,     1 cell zone  ...
         120339 polyhedra cells,  zone id: 14524
      690707 faces,     7 face zones ...
           5746 polygonal symmetry faces,  zone id: 41
           5818 polygonal symmetry faces,  zone id: 42
            464 polygonal pressure-far-field faces,  zone id: 43
            458 polygonal pressure-far-field faces,  zone id: 44
           1882 polygonal pressure-far-field faces,  zone id: 45
          13365 polygonal wall faces,  zone id: 46
         662974 polygonal interior faces,  zone id: 14523
      502692 nodes,     1 node zone  ...
  Done.


Building...
     mesh
	auto partitioning mesh by Metis (fast),
	distributing mesh
		parts....,
		faces....,
		nodes....,
		cells....,
        bandwidth reduction using Reverse Cuthill-McKee: 30428/2275 = 13.3749
  Reading boundary layer flags ...
  Done.

     materials,
     interface,
     domains,
	mixture
     zones,
	symmetry1
	symmetry2
	inlet
	outlet
	farfield
	launchvehicle
	interior--flowfield
	flowfield
     parallel,
Done.

> adjoint/                parallel/               server/
define/                 parametric-study/       solve/
display/                plot/                   surface/
exit                    preferences/            turbo-workflow/
file/                   print-license-usage     views/
mesh/                   report/

> 
> adjoint/                parallel/               server/
define/                 parametric-study/       solve/
display/                plot/                   surface/
exit                    preferences/            turbo-workflow/
file/                   print-license-usage     views/
mesh/                   report/

> 
> adjoint/                parallel/               server/
define/                 parametric-study/       solve/
display/                plot/                   surface/
exit                    preferences/            turbo-workflow/
file/                   print-license-usage     views/
mesh/                   report/

> air is a fluid

Density
no data required.


> adjoint/                parallel/               server/
define/                 parametric-study/       solve/
display/                plot/                   surface/
exit                    preferences/            turbo-workflow/
file/                   print-license-usage     views/
mesh/                   report/

> (farfield outlet inlet)

> (farfield outlet inlet)

> (farfield outlet inlet)

> adjoint/                parallel/               server/
define/                 parametric-study/       solve/
display/                plot/                   surface/
exit                    preferences/            turbo-workflow/
file/                   print-license-usage     views/
mesh/                   report/

> (launchvehicle)

> adjoint/                parallel/               server/
define/                 parametric-study/       solve/
display/                plot/                   surface/
exit                    preferences/            turbo-workflow/
file/                   print-license-usage     views/
mesh/                   report/

> 
> 
> 
> 
> 
> 
> adjoint/                parallel/               server/
define/                 parametric-study/       solve/
display/                plot/                   surface/
exit                    preferences/            turbo-workflow/
file/                   print-license-usage     views/
mesh/                   report/

> 
> 
> 
> adjoint/                parallel/               server/
define/                 parametric-study/       solve/
display/                plot/                   surface/
exit                    preferences/            turbo-workflow/
file/                   print-license-usage     views/
mesh/                   report/

> 
> 
> 
> adjoint/                parallel/               server/
define/                 parametric-study/       solve/
display/                plot/                   surface/
exit                    preferences/            turbo-workflow/
file/                   print-license-usage     views/
mesh/                   report/

> 
> adjoint/                parallel/               server/
define/                 parametric-study/       solve/
display/                plot/                   surface/
exit                    preferences/            turbo-workflow/
file/                   print-license-usage     views/
mesh/                   report/

> 
Initialize using the hybrid initialization method.

Checking case topology... 
-This case has multiple farfield bc 
-Case will be initialized with constant parameters

	iter		scalar-0

	1		1.000000e+00
	2		7.096642e-04
	3		1.028375e-04
	4		1.349130e-05
	5		2.483150e-06
	6		4.929663e-07
	7		9.885193e-08
	8		2.099712e-08
	9		5.285471e-09
	10		2.062208e-09

Hybrid initialization is done.

Note: Settings to improve the robustness of pathline and
      particle tracking have been automatically enabled.


> 
  iter  continuity  x-velocity  y-velocity  z-velocity      energy           k       omega  report-def     time/iter
     1  1.0000e+00  1.0284e-03  1.1266e-03  1.6183e-03  1.0480e-05  9.5555e-01  4.8769e-01  3.9428e+00  0:07:44  499
     2  1.0000e+00  1.8463e-03  3.1792e-03  1.5654e-03  4.5747e-05  9.1848e-01  4.7829e-01  5.5235e+00  0:07:49  498
     3  1.0000e+00  2.0815e-03  3.4446e-03  2.4671e-03  5.1855e-05  8.5758e-01  4.6764e-01  5.2843e+00  0:07:54  497
     4  1.0000e+00  2.8493e-03  6.6168e-03  1.6493e-03  8.9881e-05  8.6804e-01  4.3370e-01  5.0299e+00  0:08:00  496
     5  1.0000e+00  3.1202e-03  8.4262e-03  5.9062e-03  4.3337e-04  8.8419e-01  4.1751e-01  4.3322e+00  0:08:01  495
     6  1.2627e+00  9.8217e-03  1.8500e-02  4.4153e-03  2.2928e-04  8.9155e-01  3.7813e-01  4.0381e+00  0:08:02  494
     7  1.3566e+00  8.1319e-03  1.1894e-02  6.0156e-03  5.2117e-04  8.0731e-01  3.6981e-01  3.7613e+00  0:08:02  493
     8  1.6997e+00  1.3608e-02  2.4948e-02  5.6153e-03  5.2245e-04  8.0398e-01  3.6811e-01  3.8017e+00  0:08:02  492
     9  1.5958e+00  1.6059e-02  1.6548e-02  5.6091e-03  5.8986e-04  7.4277e-01  3.6012e-01  2.6350e+00  0:08:02  491
    10  1.8274e+00  1.4642e-02  3.3296e-02  6.8242e-03  8.0906e-04  7.7466e-01  3.8963e-01  2.4064e+00  0:08:02  490
    11  1.9768e+00  2.6101e-02  2.5757e-02  6.6145e-03  1.1070e-03  9.2517e-01  4.6336e-01  1.6670e+00  0:08:03  489

  iter  continuity  x-velocity  y-velocity  z-velocity      energy           k       omega  report-def     time/iter
    12  2.0191e+00  1.8417e-02  4.3840e-02  7.2864e-03  9.8799e-04  8.2316e-01  4.3243e-01  1.3565e+00  0:08:03  488
    13  2.1882e+00  2.7976e-02  3.6313e-02  7.1891e-03  1.5115e-03  8.8125e-01  4.4710e-01  1.1212e+00  0:08:03  487
    14  2.3839e+00  2.3899e-02  5.6708e-02  8.9314e-03  2.0558e-03  8.5842e-01  4.6688e-01  5.6336e-01  0:08:01  486
    15  2.5246e+00  3.8379e-02  5.4931e-02  1.0986e-02  1.6979e-03  9.3805e-01  4.7989e-01  6.8891e-01  0:08:01  485
    16  2.6055e+00  2.4748e-02  5.5055e-02  1.1217e-02  1.9556e-03  8.3298e-01  4.6306e-01 -3.3341e-01  0:08:03  484
    17  3.1429e+00  4.4315e-02  6.4120e-02  1.4294e-02  3.5010e-03  8.8021e-01  4.7790e-01  5.8911e-01  0:08:01  483
    18  2.8321e+00  2.8973e-02  7.1505e-02  1.4209e-02  2.6343e-03  8.4296e-01  4.7168e-01 -7.3415e-01  0:07:59  482
    19  3.4038e+00  6.4177e-02  7.0523e-02  1.9032e-02  3.0684e-03  1.2782e+00  7.4242e-01 -2.6002e-01  0:07:57  481
    20  3.3043e+00  3.8078e-02  7.5265e-02  1.7798e-02  2.9844e-03  9.1240e-01  4.8565e-01 -1.3071e+00  0:07:56  480
    21  3.5087e+00  5.9626e-02  7.3015e-02  1.9330e-02  6.6991e-03  9.3473e-01  5.1877e-01 -1.2885e+00  0:07:56  479
    22  3.4389e+00  4.7170e-02  8.6365e-02  2.1490e-02  6.9654e-03  8.8218e-01  4.8704e-01 -1.4826e+00  0:07:54  478

  iter  continuity  x-velocity  y-velocity  z-velocity      energy           k       omega  report-def     time/iter
    23  3.7792e+00  8.8358e-02  7.2985e-02  2.3841e-02  5.0931e-03  1.4950e+00  8.6983e-01 -2.5402e+00  0:07:53  477
    24  3.8656e+00  6.9433e-02  1.0490e-01  2.4790e-02  5.2153e-03  9.6616e-01  5.0149e-01 -2.2564e+00  0:07:57  476
    25  4.0051e+00  7.9824e-02  7.8325e-02  2.3074e-02  6.6585e-03  1.0150e+00  5.3468e-01 -2.6142e+00  0:07:57  475
    26  4.2394e+00  8.3807e-02  9.5812e-02  2.6128e-02  2.5171e-02  9.9748e-01  5.2888e-01 -7.7805e-01  0:07:56  474
    27  4.0236e+00  9.9998e-02  5.8511e-02  2.2338e-02  1.0259e-02  9.7677e-01  5.0279e-01 -2.7621e+00  0:07:54  473
    28  4.5066e+00  1.0344e-01  9.6567e-02  2.4745e-02  1.3214e-02  1.0479e+00  5.4273e-01 -1.1995e+00  0:07:53  472
    29  4.5836e+00  1.2542e-01  7.4066e-02  2.5588e-02  6.2079e-03  9.5817e-01  4.9468e-01 -3.3674e+00  0:07:51  471
    30  4.5674e+00  9.4234e-02  8.1457e-02  2.5956e-02  9.6116e-03  1.0975e+00  5.5760e-01 -2.4795e+00  0:07:50  470
    31  4.8245e+00  9.8343e-02  7.6503e-02  2.3309e-02  7.1451e-03  9.5292e-01  4.9619e-01 -2.8963e+00  0:07:49  469
    32  4.8327e+00  8.5249e-02  8.4516e-02  2.4576e-02  1.0391e-02  1.0073e+00  5.2266e-01 -7.3511e-01  0:07:48  468
    33  4.7251e+00  9.8913e-02  7.4059e-02  2.3857e-02  1.2565e-02  9.8475e-01  5.2960e-01 -1.5428e+00  0:07:46  467

  iter  continuity  x-velocity  y-velocity  z-velocity      energy           k       omega  report-def     time/iter
    34  4.9400e+00  1.0579e-01  8.3700e-02  2.3261e-02  9.2649e-03  1.0166e+00  5.2935e-01 -1.0740e+00  0:07:45  466
    35  5.1220e+00  8.9951e-02  8.3857e-02  2.6787e-02  8.1214e-03  9.7203e-01  5.1949e-01 -8.5504e-01  0:07:47  465
    36  5.1960e+00  8.6631e-02  9.2777e-02  2.4421e-02  8.3643e-03  1.1167e+00  6.1348e-01  1.3124e+00  0:07:46  464
    37  4.9862e+00  9.6931e-02  8.5772e-02  2.5334e-02  8.2437e-03  9.8771e-01  5.1688e-01  6.3142e-01  0:07:44  463
    38  5.0232e+00  9.4292e-02  9.0901e-02  2.4538e-02  8.9623e-03  1.0210e+00  5.3245e-01  7.3743e-01  0:07:42  462
    39  5.3306e+00  9.7683e-02  9.9799e-02  2.6388e-02  6.8609e-03  9.8390e-01  5.1001e-01  9.8914e-01  0:07:41  461
    40  5.7381e+00  9.4672e-02  9.5768e-02  2.5615e-02  1.3575e-02  9.6368e-01  5.0620e-01  2.3263e+00  0:07:39  460
    41  5.3872e+00  1.0656e-01  8.2864e-02  2.6149e-02  7.7560e-03  9.5029e-01  5.0887e-01  9.5895e-01  0:07:38  459
    42  6.1736e+00  1.0059e-01  1.0108e-01  2.6744e-02  2.3110e-02  1.3219e+00  6.6837e-01  2.5232e+00  0:07:37  458
    43  6.0340e+00  1.2421e-01  7.0619e-02  2.5604e-02  1.1310e-02  9.8506e-01  5.0599e-01  6.5285e-01  0:07:36  457
    44  6.6844e+00  1.1026e-01  9.5257e-02  2.8984e-02  1.7294e-02  1.0188e+00  5.3256e-01  7.1147e-01  0:07:34  456

  iter  continuity  x-velocity  y-velocity  z-velocity      energy           k       omega  report-def     time/iter
    45  6.1521e+00  1.1706e-01  7.5781e-02  2.5573e-02  8.9593e-03  9.7764e-01  5.1359e-01  4.6990e-01  0:07:32  455
    46  7.0394e+00  1.1720e-01  9.6791e-02  3.1863e-02  1.2676e-02  1.1336e+00  5.7738e-01  1.5728e+00  0:07:31  454
    47  6.6170e+00  9.6176e-02  8.3821e-02  2.9582e-02  1.0116e-02  9.7901e-01  4.9858e-01 -6.5798e-02  0:07:29  453
    48  7.0404e+00  1.0598e-01  1.0055e-01  2.9833e-02  1.2176e-02  1.0139e+00  5.2170e-01  1.1869e-01  0:07:28  452
    49  7.1498e+00  9.5656e-02  8.2540e-02  2.6570e-02  1.2922e-02  9.6974e-01  5.0880e-01  1.2170e+00  0:07:28  451
    50  7.9330e+00  1.2024e-01  8.3858e-02  2.7399e-02  1.4584e-02  1.1002e+00  5.6017e-01  1.9005e+00  0:07:27  450
    51  7.5149e+00  1.0461e-01  7.6087e-02  2.7903e-02  1.3911e-02  1.0416e+00  5.9106e-01  1.2297e+00  0:07:27  449
    52  8.5481e+00  1.2228e-01  9.6692e-02  3.2224e-02  1.7113e-02  1.0551e+00  5.5134e-01  8.1411e-01  0:07:25  448
    53  7.9075e+00  9.5025e-02  7.8157e-02  2.5664e-02  1.0354e-02  9.7673e-01  5.0194e-01 -1.1657e+00  0:07:25  447
    54  9.2288e+00  1.0549e-01  1.0985e-01  3.1075e-02  1.8029e-02  1.1681e+00  5.9357e-01  1.2639e+00  0:07:23  446
    55  8.6124e+00  1.0765e-01  8.6604e-02  2.9143e-02  1.6453e-02  9.7358e-01  4.9981e-01  1.0445e+00  0:07:23  445

  iter  continuity  x-velocity  y-velocity  z-velocity      energy           k       omega  report-def     time/iter
    56  9.5721e+00  1.1618e-01  1.1081e-01  3.3441e-02  1.2774e-02  1.0994e+00  5.6351e-01  2.7819e-01  0:07:21  444
    57  8.8189e+00  9.0234e-02  9.4551e-02  3.1228e-02  1.1939e-02  9.6749e-01  4.9741e-01 -1.9514e+00  0:07:20  443
    58  1.0240e+01  1.1317e-01  9.5766e-02  3.1634e-02  2.3673e-02  1.0239e+00  5.2183e-01  2.5995e+00  0:07:18  442
    59  8.8344e+00  1.0450e-01  6.9680e-02  2.6671e-02  1.3629e-02  1.0596e+00  5.5790e-01  2.5909e+00  0:07:17  441
    60  1.0567e+01  1.1819e-01  1.0905e-01  3.3786e-02  3.2810e-02  1.1126e+00  5.6923e-01 -1.1238e+00  0:07:15  440
    61  9.6295e+00  1.0333e-01  8.3306e-02  3.0760e-02  1.4918e-02  9.8720e-01  5.0501e-01 -3.8113e+00  0:07:14  439
    62  1.1361e+01  1.0797e-01  1.0188e-01  3.2887e-02  2.0715e-02  1.2044e+00  6.0336e-01  4.3491e-01  0:07:12  438
    63  1.0226e+01  9.5032e-02  9.3042e-02  2.9933e-02  1.8254e-02  9.9544e-01  5.1291e-01  1.9869e+00  0:07:11  437
    64  1.1656e+01  1.2037e-01  1.0203e-01  3.6013e-02  1.7818e-02  1.0480e+00  5.3434e-01 -2.8297e-01  0:07:10  436
    65  1.0310e+01  9.2778e-02  9.6625e-02  3.1099e-02  1.2883e-02  9.8182e-01  5.0318e-01 -3.3155e+00  0:07:09  435
    66  1.2526e+01  1.0696e-01  1.0398e-01  3.3307e-02  2.1256e-02  1.0753e+00  5.3985e-01  5.1762e-01  0:07:08  434

  iter  continuity  x-velocity  y-velocity  z-velocity      energy           k       omega  report-def     time/iter
    67  1.0823e+01  9.3516e-02  9.2993e-02  3.0853e-02  1.4834e-02  9.8522e-01  5.0543e-01  1.1983e+00  0:07:07  433
    68  1.2923e+01  1.1078e-01  1.1119e-01  3.3020e-02  2.4354e-02  1.1101e+00  5.6204e-01 -2.5422e-01  0:07:06  432
    69  1.1695e+01  8.0594e-02  8.4649e-02  2.7073e-02  1.9558e-02  9.8975e-01  5.0669e-01 -2.7332e+00  0:07:05  431
    70  1.4488e+01  1.1800e-01  1.0384e-01  3.3737e-02  2.8353e-02  1.1796e+00  5.9507e-01  1.6910e+00  0:07:04  430
    71  1.2019e+01  9.3164e-02  8.0739e-02  2.9178e-02  1.3888e-02  9.8814e-01  5.0590e-01  3.0453e+00  0:07:04  429
    72  1.4330e+01  1.0620e-01  1.1001e-01  3.5657e-02  2.3411e-02  1.0437e+00  5.3118e-01 -1.5275e+00  0:07:03  428
    73  1.2557e+01  9.5536e-02  8.4225e-02  3.1310e-02  1.3357e-02  9.9028e-01  5.0962e-01 -2.1380e+00  0:07:10  427
    74  1.5347e+01  9.9719e-02  1.0415e-01  3.4290e-02  2.4561e-02  1.0990e+00  5.4657e-01  3.4376e+00  0:06:51  426
    75  1.2955e+01  7.4423e-02  7.5209e-02  2.5259e-02  1.5698e-02  9.9026e-01  5.0873e-01  4.7386e+00  0:06:33  425
    76  1.5703e+01  1.0237e-01  1.0255e-01  3.3136e-02  2.7331e-02  1.1626e+00  5.9431e-01 -3.0837e-01  0:06:20  424
    77  1.3811e+01  7.4671e-02  8.3219e-02  2.6796e-02  2.3987e-02  9.8684e-01  5.0370e-01  2.9605e+00  0:06:09  423

  iter  continuity  x-velocity  y-velocity  z-velocity      energy           k       omega  report-def     time/iter
    78  1.7234e+01  1.0224e-01  9.0610e-02  3.4136e-02  2.8373e-02  1.1164e+00  5.6621e-01  3.4487e+00  0:06:00  422
    79  1.5035e+01  7.6472e-02  9.2523e-02  2.8455e-02  1.6048e-02  9.9234e-01  5.0854e-01  5.6021e+00  0:05:54  421
    80  1.7732e+01  9.8096e-02  1.0853e-01  3.2030e-02  3.2227e-02  1.1073e+00  5.6114e-01  2.5551e+00  0:05:48  420
    81  1.4975e+01  7.9927e-02  8.4332e-02  2.7785e-02  1.8851e-02  9.8438e-01  5.0386e-01  2.4908e+00  0:05:44  419
    82  1.8623e+01  1.0608e-01  1.0085e-01  3.4956e-02  2.6785e-02  1.1422e+00  5.6654e-01  4.9977e+00  0:05:40  418
    83  1.5956e+01  7.7032e-02  8.2575e-02  2.8776e-02  2.1389e-02  9.8557e-01  5.0306e-01  8.0485e+00  0:05:38  417
    84  1.8775e+01  1.1297e-01  1.0597e-01  3.3686e-02  3.2162e-02  1.1916e+00  5.8674e-01  5.9121e+00  0:05:35  416
    85  1.6281e+01  8.0845e-02  8.4901e-02  2.9988e-02  2.5345e-02  1.0097e+00  5.1660e-01  8.3694e+00  0:05:32  415
    86  2.0596e+01  1.1317e-01  9.5445e-02  3.4464e-02  3.3506e-02  1.0706e+00  5.4774e-01  1.1468e+01  0:05:31  414
    87  1.6941e+01  8.9724e-02  7.5210e-02  2.9980e-02  2.4245e-02  1.0207e+00  5.2507e-01  1.0925e+01  0:05:30  413
    88  2.0670e+01  1.1820e-01  1.0275e-01  3.3900e-02  3.4385e-02  1.0718e+00  5.4456e-01  4.4908e+00  0:05:30  412

  iter  continuity  x-velocity  y-velocity  z-velocity      energy           k       omega  report-def     time/iter
    89  1.7107e+01  7.1104e-02  8.3899e-02  2.8282e-02  1.6986e-02  9.9020e-01  5.0567e-01  5.0224e+00  0:05:29  411
    90  2.2859e+01  1.1580e-01  1.0708e-01  3.9492e-02  3.2045e-02  1.1608e+00  5.7106e-01  5.8489e+00  0:05:28  410
    91  1.8054e+01  6.6022e-02  8.3105e-02  2.8601e-02  1.9165e-02  9.9484e-01  5.0818e-01  5.3746e+00  0:05:26  409
    92  2.3146e+01  1.1951e-01  1.1438e-01  3.9888e-02  3.3796e-02  1.1824e+00  5.8628e-01  1.6708e+00  0:05:26  408
    93  1.9100e+01  7.3483e-02  7.8248e-02  2.7141e-02  2.5031e-02  9.9149e-01  5.0864e-01  4.9393e-01  0:05:26  407
    94  2.6054e+01  1.2486e-01  1.0967e-01  4.0497e-02  3.4333e-02  1.1123e+00  5.6357e-01  3.5665e+00  0:05:25  406
    95  2.0307e+01  8.5329e-02  7.8360e-02  3.0282e-02  4.3547e-02  9.8928e-01  5.0343e-01  2.7214e+00  0:05:24  405
    96  2.5380e+01  1.1969e-01  1.3685e-01  3.8408e-02  4.1200e-02  1.1274e+00  5.5891e-01 -3.1322e+00  0:05:25  404
    97  2.0224e+01  9.1938e-02  8.6034e-02  2.9551e-02  2.4283e-02  9.9850e-01  5.0844e-01 -2.0602e+00  0:05:24  403
    98  2.7301e+01  1.2481e-01  1.1825e-01  4.1504e-02  3.7843e-02  1.1637e+00  5.7234e-01  3.2592e-01  0:05:24  402
    99  2.1051e+01  7.8872e-02  8.0645e-02  2.9591e-02  2.2822e-02  9.9644e-01  5.0970e-01  2.1994e+00  0:05:23  401

  iter  continuity  x-velocity  y-velocity  z-velocity      energy           k       omega  report-def     time/iter
   100  2.5886e+01  1.3393e-01  1.1596e-01  4.1928e-02  3.1189e-02  1.1319e+00  5.7168e-01  8.4862e-01  0:05:22  400
   101  2.1678e+01  7.6996e-02  9.1220e-02  3.0125e-02  4.1955e-02  9.9163e-01  5.0424e-01 -2.9237e+00  0:05:21  399
   102  2.7813e+01  1.3274e-01  1.1215e-01  3.7753e-02  2.7049e-02  1.0960e+00  5.4985e-01 -5.7047e+00  0:05:19  398
   103  2.2013e+01  8.2905e-02  8.9993e-02  3.1641e-02  1.7382e-01  9.9883e-01  5.0340e-01  3.7140e-01  0:05:18  397
   104  2.7421e+01  1.9082e-01  9.7899e-02  3.7933e-02  3.9676e-02  1.1925e+00  5.7746e-01 -2.3480e+00  0:05:17  396
   105  2.2046e+01  8.9201e-02  8.9290e-02  3.1126e-02  2.5167e-02  9.9789e-01  5.0617e-01 -6.5755e+00  0:05:16  395
   106  3.0488e+01  1.3113e-01  1.1735e-01  4.1751e-02  3.9605e-02  1.1000e+00  5.4987e-01 -3.9638e+00  0:05:16  394
   107  2.4050e+01  7.6060e-02  7.6932e-02  2.7686e-02  2.6653e-02  1.0081e+00  5.1225e-01 -4.5766e+00  0:05:15  393
   108  2.9607e+01  1.3079e-01  1.1874e-01  4.2139e-02  4.6789e-02  1.1481e+00  5.8948e-01 -4.0136e+00  0:05:15  392
   109  2.3765e+01  8.2358e-02  7.8735e-02  2.8504e-02  1.9924e-02  9.9602e-01  5.0657e-01  2.6424e+00  0:05:15  391
   110  3.1005e+01  1.1249e-01  1.1042e-01  4.2980e-02  2.9311e-02  1.0675e+00  5.4117e-01  2.8945e+00  0:05:14  390

  iter  continuity  x-velocity  y-velocity  z-velocity      energy           k       omega  report-def     time/iter
   111  2.6707e+01  7.9797e-02  9.8861e-02  3.4865e-02  2.9480e-02  9.8683e-01  5.0176e-01 -5.2715e-01  0:05:13  389
   112  2.9680e+01  1.1490e-01  1.0391e-01  3.6373e-02  3.7839e-02  1.0832e+00  5.3345e-01  3.0072e+00  0:05:12  388
   113  2.5812e+01  7.9695e-02  1.0816e-01  3.0611e-02  3.3029e-02  1.0267e+00  5.1818e-01  4.7467e+00  0:05:10  387
   114  3.1223e+01  1.0807e-01  1.1103e-01  3.4595e-02  3.7437e-02  1.0881e+00  5.4389e-01  8.8692e+00  0:05:09  386
   115  2.6131e+01  7.8178e-02  8.9531e-02  2.9114e-02  4.5172e-02  9.9138e-01  5.0294e-01 -2.5079e+00  0:05:08  385
   116  3.0751e+01  1.3574e-01  1.0901e-01  3.6515e-02  4.4116e-02  1.1937e+00  5.7878e-01 -1.2719e+00  0:05:09  384
   117  2.6547e+01  8.7801e-02  9.7962e-02  2.9628e-02  2.3084e-02  1.0056e+00  5.1316e-01  2.3009e+00  0:05:08  383
   118  3.1307e+01  1.1530e-01  1.2161e-01  4.0171e-02  3.7596e-02  1.0600e+00  5.3763e-01  2.8396e+00  0:05:07  382
   119  2.7451e+01  1.0156e-01  1.0089e-01  3.2777e-02  3.6347e-02  1.0026e+00  5.1119e-01 -4.0835e+00  0:05:06  381
   120  3.0279e+01  1.2733e-01  1.1061e-01  3.8345e-02  2.8801e-02  1.1039e+00  5.4839e-01 -6.4100e+00  0:05:05  380
   121  2.5883e+01  8.3532e-02  9.0097e-02  2.9620e-02  2.1779e-02  1.0035e+00  5.0897e-01 -8.1921e+00  0:05:04  379

  iter  continuity  x-velocity  y-velocity  z-velocity      energy           k       omega  report-def     time/iter
   122  3.3611e+01  1.0058e-01  1.2760e-01  3.7954e-02  3.4372e-02  1.1877e+00  5.8957e-01 -1.2208e+01  0:05:02  378
   123  2.8004e+01  7.8917e-02  7.1988e-02  2.6858e-02  2.3585e-02  9.9556e-01  5.0484e-01 -3.2172e+01  0:05:01  377
   124  3.2612e+01  1.0999e-01  9.8762e-02  3.3964e-02  3.1182e-02  1.1838e+00  5.8479e-01 -3.4097e+01  0:04:59  376
   125  2.7301e+01  8.2621e-02  8.4571e-02  2.7665e-02  2.8885e-02  9.9860e-01  5.0675e-01 -3.3062e+01  0:04:59  375
   126  3.5304e+01  1.1189e-01  1.1373e-01  3.7301e-02  3.3919e-02  1.1046e+00  5.5191e-01 -3.8614e+01  0:04:59  374
   127  2.8475e+01  8.4044e-02  8.4094e-02  2.9786e-02  2.3625e-02  1.0041e+00  5.0905e-01 -4.0269e+01  0:04:58  373
   128  3.5665e+01  1.1629e-01  1.0798e-01  3.7487e-02  4.0257e-02  1.1302e+00  5.6263e-01 -4.1832e+01  0:04:57  372
   129  2.9157e+01  7.8646e-02  8.3627e-02  2.9299e-02  2.6315e-02  9.9841e-01  5.0702e-01 -3.6552e+01  0:04:56  371
   130  3.7851e+01  1.1211e-01  1.1506e-01  3.8279e-02  5.3901e-02  1.1441e+00  5.6852e-01 -3.1371e+01  0:04:56  370
   131  3.0785e+01  8.5591e-02  6.7021e-02  2.7167e-02  2.4568e-02  9.9614e-01  5.0304e-01 -2.0367e+01  0:04:55  369
   132  4.1138e+01  1.1460e-01  1.1919e-01  3.9649e-02  5.7881e-02  1.1264e+00  5.5922e-01 -2.0015e+01  0:04:54  368

  iter  continuity  x-velocity  y-velocity  z-velocity      energy           k       omega  report-def     time/iter
   133  3.0455e+01  8.8156e-02  8.2773e-02  2.6426e-02  3.1020e-02  1.0035e+00  5.1305e-01 -1.0501e+01  0:04:53  367
   134  3.7887e+01  1.1937e-01  1.0916e-01  3.9076e-02  3.6093e-02  1.0772e+00  5.4376e-01  5.1074e+00  0:04:53  366
   135  3.3022e+01  8.1919e-02  9.9507e-02  3.2752e-02  2.6558e-02  1.0031e+00  5.1104e-01  8.5001e+00  0:04:52  365
   136  3.9624e+01  1.1017e-01  1.0579e-01  3.7194e-02  2.8721e-02  1.1110e+00  5.5444e-01  5.2382e+00  0:04:52  364
   137  3.0407e+01  8.1664e-02  8.9208e-02  2.9705e-02  2.3735e-02  1.0012e+00  5.0740e-01  3.9822e+00  0:04:51  363
   138  3.8754e+01  1.1174e-01  1.1658e-01  3.9742e-02  4.1046e-02  1.1223e+00  5.5793e-01  5.9282e+00  0:04:50  362
   139  3.2888e+01  9.3863e-02  7.6592e-02  2.9860e-02  2.5406e-02  1.0103e+00  5.1246e-01  1.4444e+00  0:04:49  361
   140  4.2545e+01  1.1378e-01  1.1579e-01  3.8633e-02  3.6104e-02  1.0844e+00  5.4260e-01  1.9527e+00  0:04:49  360
   141  3.2692e+01  7.1468e-02  8.4231e-02  2.6481e-02  2.7192e-02  1.0123e+00  5.1438e-01 -5.5309e+00  0:04:48  359
   142  4.1407e+01  1.1259e-01  1.1418e-01  3.8372e-02  5.2159e-02  1.1451e+00  5.7456e-01 -1.2705e+01  0:04:47  358
   143  3.4063e+01  9.0478e-02  8.8207e-02  3.4278e-02  2.6325e-02  1.0121e+00  5.1451e-01 -1.8491e+01  0:05:01  357

  iter  continuity  x-velocity  y-velocity  z-velocity      energy           k       omega  report-def     time/iter
   144  4.0922e+01  1.0342e-01  1.1441e-01  3.9739e-02  2.4295e-02  1.0694e+00  5.4040e-01 -1.9883e+01  0:04:57  356
   145  3.4172e+01  7.6511e-02  8.7423e-02  3.1141e-02  3.5193e-02  1.0053e+00  5.1013e-01 -4.3859e+01  0:04:53  355
   146  4.0928e+01  1.0566e-01  1.0168e-01  3.6671e-02  3.8238e-02  1.0852e+00  5.4005e-01 -6.0599e+01  0:04:51  354
   147  3.5496e+01  8.7045e-02  8.1003e-02  3.1895e-02  2.3569e-02  1.0253e+00  5.1787e-01 -4.7795e+01  0:04:49  353
   148  4.4024e+01  1.0890e-01  1.0318e-01  4.0453e-02  4.3263e-02  1.0627e+00  5.4132e-01 -3.9325e+01  0:05:11  352
   149  3.5948e+01  5.8913e-02  8.8879e-02  2.7308e-02  2.8608e-02  1.0285e+00  5.2140e-01 -4.9278e+01  0:05:04  351
   150  4.6718e+01  1.1025e-01  1.0577e-01  3.9532e-02  4.1865e-02  1.0585e+00  5.4875e-01 -5.4629e+01  0:04:59  350
   151  3.7366e+01  7.5799e-02  8.5425e-02  3.0184e-02  3.3174e-02  1.0186e+00  5.1845e-01 -3.3313e+01  0:04:55  349
   152  4.4350e+01  1.0633e-01  1.0595e-01  3.7622e-02  3.1667e-02  1.0493e+00  5.3001e-01 -1.6095e+01  0:04:52  348
   153  3.8713e+01  8.0562e-02  9.3015e-02  3.1184e-02  3.0885e-02  1.0047e+00  5.0885e-01 -1.6884e+01  0:04:49  347
   154  4.4913e+01  1.1147e-01  9.6740e-02  3.4524e-02  3.3515e-02  1.0648e+00  5.3483e-01 -4.4849e+00  0:04:46  346

  iter  continuity  x-velocity  y-velocity  z-velocity      energy           k       omega  report-def     time/iter
   155  3.8593e+01  9.0197e-02  7.9839e-02  3.0421e-02  3.6319e-02  1.0453e+00  5.2690e-01  4.8434e+00  0:04:43  345
   156  4.6288e+01  1.0204e-01  1.0466e-01  3.4412e-02  4.2203e-02  1.0681e+00  5.3895e-01  1.6241e+01  0:04:42  344
   157  3.9967e+01  7.1878e-02  8.0046e-02  2.6183e-02  3.4993e-02  1.0137e+00  5.1415e-01  3.1697e+00  0:04:41  343
   158  5.0139e+01  1.1095e-01  1.0609e-01  3.8343e-02  3.7099e-02  1.0931e+00  5.5181e-01  3.8783e+00  0:04:39  342
   159  4.1776e+01  8.2453e-02  7.9862e-02  3.0508e-02  3.4488e-02  1.0034e+00  5.0656e-01  6.2745e+00  0:04:38  341
   160  4.8164e+01  1.1256e-01  1.1419e-01  4.0484e-02  2.8761e-02  1.0706e+00  5.3034e-01  1.1081e+01  0:04:37  340
   161  4.4416e+01  8.6088e-02  9.8035e-02  3.2431e-02  3.5853e-02  1.0036e+00  5.0648e-01 -1.2059e+01  0:04:36  339
   162  4.8386e+01  1.1091e-01  8.8209e-02  3.3419e-02  3.2354e-02  1.0806e+00  5.3436e-01 -1.1515e+01  0:04:34  338
   163  4.2555e+01  9.5556e-02  8.7615e-02  3.1709e-02  2.5888e-02  1.0281e+00  5.1624e-01 -6.6193e+00  0:04:33  337
   164  4.7791e+01  1.0076e-01  1.0443e-01  3.5325e-02  3.8615e-02  1.0922e+00  5.4744e-01  3.0676e+00  0:04:32  336
   165  4.5733e+01  9.2786e-02  8.7355e-02  3.0089e-02  3.0258e-02  1.0331e+00  5.2866e-01 -1.7494e+01  0:04:31  335

  iter  continuity  x-velocity  y-velocity  z-velocity      energy           k       omega  report-def     time/iter
   166  5.3780e+01  9.7783e-02  1.0272e-01  3.5254e-02  3.8241e-02  1.0486e+00  5.3072e-01 -2.5218e+01  0:04:29  334
   167  4.5782e+01  8.5320e-02  9.1397e-02  3.1539e-02  3.2213e-02  1.0222e+00  5.1797e-01 -1.9226e+01  0:04:28  333
   168  5.1178e+01  1.0917e-01  1.0538e-01  3.6643e-02  3.3538e-02  1.0552e+00  5.3140e-01 -1.4955e+01  0:04:28  332
   169  4.7934e+01  9.1141e-02  9.5042e-02  3.1657e-02  3.1748e-02  1.0186e+00  5.1581e-01 -2.3134e+01  0:04:27  331
   170  5.5592e+01  1.0724e-01  1.0799e-01  3.8065e-02  3.2540e-02  1.0660e+00  5.3685e-01 -1.4829e+01  0:04:26  330
   171  4.6591e+01  9.0289e-02  8.0648e-02  3.2680e-02  2.5375e-02  1.0137e+00  5.1209e-01 -1.6517e+01  0:04:25  329
   172  5.2854e+01  1.0331e-01  1.0260e-01  3.8815e-02  3.7041e-02  1.1213e+00  5.5642e-01 -1.1230e+01  0:04:25  328
   173  5.1360e+01  8.2082e-02  8.4598e-02  3.0468e-02  2.9198e-02  1.0169e+00  5.1413e-01 -2.5176e+01  0:04:24  327
   174  5.9080e+01  9.5091e-02  9.5079e-02  3.4335e-02  3.5853e-02  1.0640e+00  5.3747e-01 -1.4630e+00  0:04:24  326
   175  5.0594e+01  8.5487e-02  8.5546e-02  3.2080e-02  3.0056e-02  1.0139e+00  5.1252e-01  3.3699e-01  0:04:22  325
   176  5.5578e+01  9.2373e-02  1.0024e-01  3.6515e-02  3.7763e-02  1.0882e+00  5.4278e-01  3.2336e+00  0:04:21  324

  iter  continuity  x-velocity  y-velocity  z-velocity      energy           k       omega  report-def     time/iter
   177  5.4467e+01  8.4572e-02  9.1161e-02  3.2744e-02  3.4762e-02  1.0188e+00  5.1692e-01 -9.3218e+00  0:04:20  323
   178  6.4032e+01  1.0469e-01  9.2734e-02  3.4398e-02  3.2489e-02  1.0251e+00  5.1779e-01 -6.5185e+00  0:04:20  322
   179  5.3076e+01  8.4351e-02  8.4340e-02  3.0377e-02  3.1323e-02  1.0337e+00  5.2207e-01 -1.2324e+01  0:04:19  321
   180  5.7088e+01  1.1783e-01  1.0766e-01  4.0557e-02  4.7288e-02  1.0601e+00  5.3121e-01 -6.1484e+00  0:04:19  320
   181  5.7056e+01  8.6843e-02  9.3553e-02  3.0434e-02  3.1354e-02  1.0321e+00  5.1974e-01 -1.0597e+01  0:04:18  319
   182  6.8149e+01  1.0294e-01  1.1151e-01  3.8385e-02  4.4253e-02  1.0681e+00  5.3816e-01 -2.2374e+00  0:04:17  318
   183  5.6724e+01  9.2256e-02  7.6734e-02  3.0766e-02  3.3893e-02  1.0130e+00  5.1103e-01  1.0795e+00  0:04:17  317
   184  6.2001e+01  8.9109e-02  1.0164e-01  3.3159e-02  7.1970e-02  1.0565e+00  5.3286e-01  1.2828e+01  0:04:10  316
   185  5.9428e+01  1.0911e-01  8.9349e-02  3.0832e-02  3.1233e-02  1.0569e+00  5.3288e-01  6.2902e+00  0:04:10  315
   186  6.5082e+01  1.0018e-01  9.5992e-02  3.4137e-02  4.1033e-02  1.0603e+00  5.4222e-01  1.2615e+01  0:04:03  314
   187  6.0698e+01  9.4412e-02  8.9126e-02  3.1570e-02  2.9687e-02  1.0196e+00  5.1607e-01  1.5859e+01  0:04:05  313

  iter  continuity  x-velocity  y-velocity  z-velocity      energy           k       omega  report-def     time/iter
   188  6.1968e+01  9.7628e-02  9.7347e-02  3.7392e-02  5.0141e-02  1.0923e+00  5.4893e-01  1.5148e+01  0:04:00  312
   189  6.1916e+01  9.9959e-02  1.1285e-01  3.4247e-02  2.8561e-02  1.0325e+00  5.2316e-01  5.2447e+00  0:04:02  311
   190  6.9225e+01  9.8315e-02  1.0334e-01  3.6215e-02  3.3317e-02  1.0405e+00  5.2514e-01  2.8281e-02  0:04:04  310
   191  5.9966e+01  8.2200e-02  8.4565e-02  3.3740e-02  2.8188e-02  1.0360e+00  5.2520e-01 -1.6786e+01  0:04:05  309
   192  6.8252e+01  8.8477e-02  9.2054e-02  3.3525e-02  3.4746e-02  1.0432e+00  5.2784e-01 -3.5201e+01  0:04:05  308
   193  5.9239e+01  8.2307e-02  7.5032e-02  2.9013e-02  2.2060e-02  1.0129e+00  5.1276e-01 -7.0577e+01  0:03:59  307
   194  7.6049e+01  9.5398e-02  8.7576e-02  3.3296e-02  3.5380e-02  1.0656e+00  5.3208e-01 -5.0193e+01  0:03:59  306
   195  6.4300e+01  8.5392e-02  7.3266e-02  3.1236e-02  2.3149e-02  1.0250e+00  5.1753e-01 -7.0685e+01  0:04:01  305
   196  7.3665e+01  7.8743e-02  8.1837e-02  3.0398e-02  3.6577e-02  1.0787e+00  5.4633e-01 -1.1091e+02  0:04:00  304
   197  6.8389e+01  7.2053e-02  7.6642e-02  2.8487e-02  2.4507e-02  1.0236e+00  5.1893e-01 -1.4358e+02  0:04:00  303
   198  8.1554e+01  8.4304e-02  8.6870e-02  3.2630e-02  3.4179e-02  1.0650e+00  5.3884e-01 -1.2039e+02  0:03:59  302

  iter  continuity  x-velocity  y-velocity  z-velocity      energy           k       omega  report-def     time/iter
   199  7.2051e+01  6.9195e-02  7.9689e-02  3.1740e-02  2.1669e-02  1.0161e+00  5.1459e-01 -1.4536e+02  0:04:00  301
   200  7.8434e+01  7.5226e-02  8.9910e-02  3.2679e-02  3.3306e-02  1.0474e+00  5.2327e-01 -1.6343e+02  0:03:54  300
   201  7.3778e+01  7.9628e-02  8.5402e-02  3.1991e-02  3.2253e-02  1.0416e+00  5.2573e-01 -1.8313e+02  0:03:55  299
   202  8.9172e+01  9.6151e-02  8.3337e-02  3.3371e-02  3.7093e-02  1.0428e+00  5.2342e-01 -9.7599e+01  0:03:55  298
   203  7.6297e+01  8.1668e-02  8.2010e-02  3.1965e-02  5.5859e-02  1.0124e+00  5.1145e-01 -8.8108e+01  0:03:50  297
   204  9.0799e+01  9.5820e-02  8.8775e-02  3.4202e-02  4.4507e-02  1.1154e+00  5.6193e-01 -7.9672e+01  0:03:46  296
   205  8.3034e+01  7.6002e-02  8.1502e-02  2.9293e-02  3.1056e-02  1.0102e+00  5.0971e-01 -9.0485e+01  0:03:42  295
   206  9.6846e+01  9.1930e-02  9.0563e-02  3.3533e-02  3.3925e-02  1.1186e+00  5.6322e-01 -1.2263e+01  0:03:39  294
   207  8.8090e+01  8.0170e-02  7.6340e-02  3.2239e-02  3.6493e-02  1.0141e+00  5.1363e-01 -1.4767e+00  0:03:36  293
   208  1.0186e+02  7.1532e-02  9.0754e-02  3.3017e-02  3.6170e-02  1.0434e+00  5.2615e-01 -9.3827e+00  0:03:34  292
   209  1.0005e+02  7.5424e-02  7.6399e-02  3.0893e-02  4.6573e-02  1.0267e+00  5.2271e-01 -1.4787e+01  0:03:32  291

  iter  continuity  x-velocity  y-velocity  z-velocity      energy           k       omega  report-def     time/iter
   210  1.1269e+02  8.5521e-02  7.0429e-02  3.0414e-02  3.1732e-02  1.0276e+00  5.1786e-01  3.3114e+01  0:03:31  290
   211  1.0401e+02  6.4361e-02  6.5345e-02  2.8782e-02  2.7982e-02  1.0210e+00  5.1657e-01  3.0726e+01  0:03:30  289
   212  1.2041e+02  6.4786e-02  6.4895e-02  3.1645e-02  4.3062e-02  1.0730e+00  5.4493e-01  6.5079e+01  0:03:29  288
   213  1.1619e+02  6.1258e-02  6.0616e-02  2.6389e-02  4.0647e-02  1.0088e+00  5.0843e-01  3.6004e+01  0:03:28  287
   214  1.3648e+02  7.0961e-02  6.1025e-02  2.9070e-02  3.2556e-02  1.0677e+00  5.3510e-01  5.8563e+01  0:03:32  286
   215  1.2473e+02  5.5500e-02  5.2898e-02  3.1242e-02  2.7141e-02  1.0169e+00  5.1577e-01 -2.5187e+01  0:03:30  285
   216  1.4950e+02  5.1946e-02  5.3165e-02  2.8146e-02  3.8415e-02  1.0441e+00  5.2335e-01 -1.4552e+02  0:03:29  284
   217  1.4135e+02  4.4232e-02  5.1071e-02  2.5527e-02  2.5059e-02  9.9162e-01  4.9809e-01 -2.9304e+02  0:03:27  283
   218  1.6289e+02  4.9619e-02  4.4648e-02  2.5638e-02  3.0406e-02  1.0295e+00  5.1617e-01 -3.9718e+02  0:03:31  282
   219  1.6190e+02  4.3339e-02  4.0656e-02  2.5887e-02  3.2299e-02  9.9247e-01  5.0017e-01 -6.6641e+02  0:03:28  281
   220  1.8536e+02  3.7610e-02  4.6599e-02  2.3231e-02  3.0518e-02  9.9363e-01  4.9981e-01 -9.3164e+02  0:03:25  280

  iter  continuity  x-velocity  y-velocity  z-velocity      energy           k       omega  report-def     time/iter
   221  1.9244e+02  3.9113e-02  3.7725e-02  2.2132e-02  2.1767e-02  9.6565e-01  4.7799e-01 -1.1183e+03  0:03:22  279
   222  2.1333e+02  3.6335e-02  3.4135e-02  2.1932e-02  2.3807e-02  9.5772e-01  4.6667e-01 -1.2686e+03  0:03:20  278
   223  2.2818e+02  3.2392e-02  3.5330e-02  2.2610e-02  1.8407e-02  9.0155e-01  4.3194e-01 -1.4828e+03  0:03:19  277
   224  2.6780e+02  3.0254e-02  2.8583e-02  2.1641e-02  2.2723e-02  8.4770e-01  4.1871e-01 -1.6514e+03  0:03:17  276
   225  3.0348e+02  2.8327e-02  2.8273e-02  2.0976e-02  1.6032e-02  8.2437e-01  3.9318e-01 -1.8550e+03  0:03:16  275
   226  3.6417e+02  2.4328e-02  2.2938e-02  2.0299e-02  1.5566e-02  8.0218e-01  4.0285e-01 -2.1920e+03  0:03:18  274
   227  4.4947e+02  2.1516e-02  2.0913e-02  2.0118e-02  1.3968e-02  7.7847e-01  3.9606e-01 -2.4705e+03  0:03:16  273
   228  5.7045e+02  2.0514e-02  1.9294e-02  2.0139e-02  1.4288e-02  7.9085e-01  4.0489e-01 -2.6438e+03  0:03:15  272
   229  7.5293e+02  1.9293e-02  1.9743e-02  2.1501e-02  1.5467e-02  7.9258e-01  4.0949e-01 -2.9453e+03  0:03:14  271
   230  1.0129e+03  1.9562e-02  1.8244e-02  2.3816e-02  1.4569e-02  7.7641e-01  4.1462e-01 -3.4283e+03  0:03:12  270

 turbulent viscosity limited to viscosity ratio of 1.000000e+05 in 212 cells 
   231  1.4175e+03  1.7394e-02  1.7067e-02  2.5199e-02  1.5022e-02  7.2541e-01  4.0582e-01 -3.5741e+03  0:03:11  269

 turbulent viscosity limited to viscosity ratio of 1.000000e+05 in 3314 cells 

  iter  continuity  x-velocity  y-velocity  z-velocity      energy           k       omega  report-def     time/iter
   232  2.0060e+03  1.7644e-02  1.6506e-02  2.6234e-02  1.4214e-02  7.6203e-01  4.1727e-01 -3.5259e+03  0:03:10  268

 turbulent viscosity limited to viscosity ratio of 1.000000e+05 in 9654 cells 
   233  2.8393e+03  1.7908e-02  1.5980e-02  2.5648e-02  1.5469e-02  7.6552e-01  4.0368e-01 -3.4300e+03  0:03:08  267

 turbulent viscosity limited to viscosity ratio of 1.000000e+05 in 16195 cells 
   234  4.0290e+03  1.7059e-02  1.6404e-02  2.4815e-02  1.4515e-02  7.6100e-01  3.8848e-01 -3.2225e+03  0:03:08  266

 turbulent viscosity limited to viscosity ratio of 1.000000e+05 in 23922 cells 
   235  5.8737e+03  1.5375e-02  1.5139e-02  2.3765e-02  1.4455e-02  7.3807e-01  3.9903e-01 -3.3741e+03  0:03:07  265

 turbulent viscosity limited to viscosity ratio of 1.000000e+05 in 31681 cells 
   236  8.5365e+03  1.4980e-02  1.5200e-02  2.2754e-02  1.4858e-02  7.6218e-01  4.0146e-01 -5.0487e+03  0:03:06  264

 turbulent viscosity limited to viscosity ratio of 1.000000e+05 in 38220 cells 
   237  1.2054e+04  1.5770e-02  1.5435e-02  2.2273e-02  1.4982e-02  7.4563e-01  3.8950e-01 -1.0011e+04  0:03:06  263

 turbulent viscosity limited to viscosity ratio of 1.000000e+05 in 43646 cells 
   238  1.6564e+04  1.6196e-02  1.5274e-02  2.2541e-02  1.6401e-02  8.5297e-01  4.5242e-01 -1.8989e+04  0:03:05  262

 turbulent viscosity limited to viscosity ratio of 1.000000e+05 in 48624 cells 
   239  2.2993e+04  1.7308e-02  1.6803e-02  2.5016e-02  1.7756e-02  8.8936e-01  4.5555e-01 -3.4910e+04  0:03:05  261

 turbulent viscosity limited to viscosity ratio of 1.000000e+05 in 54563 cells 
   240  3.2060e+04  1.7959e-02  1.8226e-02  2.6406e-02  1.8119e-02  9.8484e-01  4.9253e-01 -5.8251e+04  0:03:05  260

 turbulent viscosity limited to viscosity ratio of 1.000000e+05 in 61610 cells 
   241  4.5686e+04  1.7840e-02  1.7918e-02  2.6900e-02  1.8028e-02  9.2943e-01  4.7701e-01 -8.4560e+04  0:03:05  259

 turbulent viscosity limited to viscosity ratio of 1.000000e+05 in 64183 cells 
   242  6.2172e+04  1.4845e-02  1.6020e-02  2.3330e-02  1.6340e-02  8.8028e-01  4.6353e-01 -1.1299e+05  0:03:04  258

 turbulent viscosity limited to viscosity ratio of 1.000000e+05 in 69768 cells 

  iter  continuity  x-velocity  y-velocity  z-velocity      energy           k       omega  report-def     time/iter
   243  7.7464e+04  1.5791e-02  1.7328e-02  2.3658e-02  1.6090e-02  7.9323e-01  3.8720e-01 -1.3145e+05  0:03:04  257

 turbulent viscosity limited to viscosity ratio of 1.000000e+05 in 76346 cells 
   244  9.9567e+04  1.6586e-02  1.7202e-02  2.5702e-02  2.2151e-02  7.9579e-01  4.1032e-01 -1.3774e+05  0:03:03  256

 turbulent viscosity limited to viscosity ratio of 1.000000e+05 in 80194 cells 
   245  1.2800e+05  1.5458e-02  1.5136e-02  2.5428e-02  2.2595e-02  8.5058e-01  4.7762e-01 -1.5285e+05  0:03:02  255

 turbulent viscosity limited to viscosity ratio of 1.000000e+05 in 83262 cells 
   246  1.6596e+05  1.5849e-02  1.5868e-02  2.2827e-02  2.0174e-02  9.6962e-01  4.9782e-01 -1.6845e+05  0:03:02  254

 turbulent viscosity limited to viscosity ratio of 1.000000e+05 in 85702 cells 
   247  2.0574e+05  1.7281e-02  1.6842e-02  2.0020e-02  1.9551e-02  9.6715e-01  4.8743e-01 -2.2218e+05  0:03:00  253

 turbulent viscosity limited to viscosity ratio of 1.000000e+05 in 87098 cells 
   248  2.4897e+05  1.8511e-02  1.9383e-02  2.0962e-02  2.1586e-02  9.6505e-01  4.7958e-01 -3.0892e+05  0:02:59  252

 turbulent viscosity limited to viscosity ratio of 1.000000e+05 in 87911 cells 
   249  2.9786e+05  1.9634e-02  2.3133e-02  2.3823e-02  2.6572e-02  9.6320e-01  4.7940e-01 -5.2999e+05  0:02:58  251

 turbulent viscosity limited to viscosity ratio of 1.000000e+05 in 88501 cells 
   250  3.7908e+05  2.5097e-02  2.7179e-02  2.8834e-02  3.0048e-02  9.7668e-01  4.8554e-01 -9.1348e+05  0:02:57  250

 turbulent viscosity limited to viscosity ratio of 1.000000e+05 in 89087 cells 
   251  4.7406e+05  3.0013e-02  2.8668e-02  3.2559e-02  2.8750e-02  9.6197e-01  4.7442e-01 -1.3860e+06  0:02:56  249

 turbulent viscosity limited to viscosity ratio of 1.000000e+05 in 89344 cells 
   252  5.5888e+05  2.7436e-02  2.6022e-02  2.9860e-02  2.3609e-02  9.2718e-01  4.5639e-01 -1.9643e+06  0:02:55  248

 turbulent viscosity limited to viscosity ratio of 1.000000e+05 in 89639 cells 
   253  6.3873e+05  2.6324e-02  3.0025e-02  2.9263e-02  2.4055e-02  8.6592e-01  4.1845e-01 -2.4556e+06  0:02:54  247

 turbulent viscosity limited to viscosity ratio of 1.000000e+05 in 90033 cells 

  iter  continuity  x-velocity  y-velocity  z-velocity      energy           k       omega  report-def     time/iter
   254  7.4154e+05  2.6776e-02  2.8456e-02  2.9482e-02  2.2035e-02  8.9411e-01  4.3952e-01 -3.0999e+06  0:02:53  246

 turbulent viscosity limited to viscosity ratio of 1.000000e+05 in 90513 cells 
   255  8.4495e+05  2.7349e-02  2.6562e-02  2.8266e-02  2.5605e-02  9.5892e-01  4.6131e-01 -3.7948e+06  0:02:52  245

 turbulent viscosity limited to viscosity ratio of 1.000000e+05 in 91879 cells 
   256  9.4432e+05  2.6389e-02  2.8611e-02  2.8943e-02  2.1656e-02  9.7351e-01  4.7195e-01 -4.5392e+06  0:02:52  244

 turbulent viscosity limited to viscosity ratio of 1.000000e+05 in 93168 cells 
   257  1.0497e+06  2.3939e-02  2.4630e-02  2.8652e-02  2.1625e-02  9.8291e-01  4.7965e-01 -5.3961e+06  0:02:51  243

 turbulent viscosity limited to viscosity ratio of 1.000000e+05 in 94140 cells 
   258  1.1817e+06  2.3306e-02  2.4502e-02  2.7564e-02  2.2454e-02  9.8889e-01  4.8755e-01 -6.4274e+06  0:02:50  242

 turbulent viscosity limited to viscosity ratio of 1.000000e+05 in 95321 cells 
   259  1.3495e+06  2.2394e-02  2.2480e-02  2.7822e-02  2.0804e-02  9.7143e-01  4.7380e-01 -7.5648e+06  0:02:49  241

 turbulent viscosity limited to viscosity ratio of 1.000000e+05 in 96178 cells 
   260  1.4736e+06  2.1054e-02  2.1315e-02  2.7336e-02  2.2442e-02  9.7928e-01  4.7491e-01 -8.7354e+06  0:02:48  240

 turbulent viscosity limited to viscosity ratio of 1.000000e+05 in 96576 cells 
   261  1.5750e+06  2.1839e-02  2.2245e-02  2.7056e-02  2.3113e-02  9.8049e-01  4.7124e-01 -1.0048e+07  0:02:48  239

 turbulent viscosity limited to viscosity ratio of 1.000000e+05 in 96646 cells 
   262  1.7223e+06  2.0835e-02  2.1474e-02  2.8200e-02  2.2537e-02  9.8306e-01  4.7608e-01 -1.1405e+07  0:02:47  238

 turbulent viscosity limited to viscosity ratio of 1.000000e+05 in 96572 cells 
   263  1.8851e+06  2.1376e-02  2.1977e-02  2.8727e-02  2.5593e-02  9.7602e-01  4.7015e-01 -1.2980e+07  0:02:46  237

 turbulent viscosity limited to viscosity ratio of 1.000000e+05 in 96439 cells 
   264  2.0256e+06  2.3497e-02  2.3236e-02  3.2325e-02  2.6405e-02  9.8913e-01  4.7533e-01 -1.4611e+07  0:02:46  236

 turbulent viscosity limited to viscosity ratio of 1.000000e+05 in 96226 cells 

  iter  continuity  x-velocity  y-velocity  z-velocity      energy           k       omega  report-def     time/iter
   265  2.2461e+06  2.4892e-02  2.5262e-02  3.6795e-02  2.9080e-02  9.9383e-01  4.8162e-01 -1.6180e+07  0:02:45  235

 turbulent viscosity limited to viscosity ratio of 1.000000e+05 in 96053 cells 
   266  2.4197e+06  2.8041e-02  2.6527e-02  4.0388e-02  2.8482e-02  9.9383e-01  4.8621e-01 -1.7724e+07  0:02:45  234

 turbulent viscosity limited to viscosity ratio of 1.000000e+05 in 95862 cells 
   267  2.5721e+06  3.1739e-02  2.9357e-02  4.2593e-02  2.9513e-02  9.9199e-01  4.8521e-01 -1.9082e+07  0:02:44  233

 turbulent viscosity limited to viscosity ratio of 1.000000e+05 in 95556 cells 
   268  2.6894e+06  3.3550e-02  3.0718e-02  4.3562e-02  3.0319e-02  9.9662e-01  4.9229e-01 -2.0044e+07  0:02:44  232

 turbulent viscosity limited to viscosity ratio of 1.000000e+05 in 95238 cells 
   269  2.9152e+06  3.5361e-02  3.2929e-02  4.4414e-02  3.0825e-02  9.9923e-01  4.9510e-01 -2.0262e+07  0:02:44  231

 turbulent viscosity limited to viscosity ratio of 1.000000e+05 in 94847 cells 
   270  3.0458e+06  3.5614e-02  3.1113e-02  4.4758e-02  3.0425e-02  9.9814e-01  4.9647e-01 -1.9852e+07  0:02:43  230

 absolute pressure limited to 5.000000e+10 in 3 cells on zone 14524 

 turbulent viscosity limited to viscosity ratio of 1.000000e+05 in 94480 cells 
   271  3.1256e+06  3.4527e-02  3.1582e-02  4.3324e-02  3.0372e-02  9.9813e-01  4.9442e-01 -1.9040e+07  0:02:42  229

 absolute pressure limited to 5.000000e+10 in 2 cells on zone 14524 

 turbulent viscosity limited to viscosity ratio of 1.000000e+05 in 94103 cells 
   272  3.3433e+06  3.5521e-02  3.0432e-02  4.1812e-02  3.0366e-02  9.9748e-01  4.9273e-01 -1.7887e+07  0:02:41  228

 absolute pressure limited to 5.000000e+10 in 3 cells on zone 14524 

 turbulent viscosity limited to viscosity ratio of 1.000000e+05 in 93815 cells 
   273  3.6837e+06  3.6252e-02  3.3227e-02  4.1837e-02  3.1904e-02  9.9879e-01  4.9534e-01 -1.6019e+07  0:02:41  227

 absolute pressure limited to 5.000000e+10 in 2 cells on zone 14524 

 turbulent viscosity limited to viscosity ratio of 1.000000e+05 in 93662 cells 
   274  4.0439e+06  3.6035e-02  3.5352e-02  4.3428e-02  3.3404e-02  1.0003e+00  4.9559e-01 -1.3529e+07  0:02:40  226

 absolute pressure limited to 5.000000e+10 in 3 cells on zone 14524 

 turbulent viscosity limited to viscosity ratio of 1.000000e+05 in 93563 cells 
   275  4.2022e+06  3.6025e-02  3.7424e-02  4.4534e-02  3.1455e-02  9.9844e-01  4.9613e-01 -1.0279e+07  0:02:40  225

 absolute pressure limited to 5.000000e+10 in 3 cells on zone 14524 

 turbulent viscosity limited to viscosity ratio of 1.000000e+05 in 93450 cells 

  iter  continuity  x-velocity  y-velocity  z-velocity      energy           k       omega  report-def     time/iter
   276  4.8828e+06  3.6248e-02  3.7508e-02  4.4054e-02  3.3065e-02  9.9790e-01  4.9413e-01 -7.2137e+06  0:02:39  224

 absolute pressure limited to 5.000000e+10 in 5 cells on zone 14524 

 turbulent viscosity limited to viscosity ratio of 1.000000e+05 in 92747 cells 
   277  5.6584e+06  4.0043e-02  4.4260e-02  4.8044e-02  4.5956e-02  9.9910e-01  4.9694e-01 -4.5940e+05  0:02:38  223

 absolute pressure limited to 5.000000e+10 in 6 cells on zone 14524 

 turbulent viscosity limited to viscosity ratio of 1.000000e+05 in 93330 cells 
   278  6.0719e+06  3.6744e-02  4.1694e-02  5.1260e-02  4.3293e-02  9.9965e-01  4.9810e-01  6.0546e+06  0:02:37  222

 absolute pressure limited to 5.000000e+10 in 13 cells on zone 14524 

 turbulent viscosity limited to viscosity ratio of 1.000000e+05 in 100551 cells 
   279  6.4090e+06  3.5645e-02  4.0322e-02  4.6566e-02  4.0248e-02  9.9925e-01  4.9848e-01  1.1509e+07  0:02:37  221

 absolute pressure limited to 5.000000e+10 in 29 cells on zone 14524 

 turbulent viscosity limited to viscosity ratio of 1.000000e+05 in 104713 cells 
   280  7.8093e+06  3.2931e-02  3.6886e-02  4.0463e-02  3.9655e-02  9.9792e-01  4.9630e-01  1.5207e+07  0:02:36  220

 absolute pressure limited to 5.000000e+10 in 58 cells on zone 14524 

 turbulent viscosity limited to viscosity ratio of 1.000000e+05 in 105700 cells 
   281  9.3828e+06  2.9768e-02  3.6136e-02  3.6833e-02  4.2467e-02  9.9737e-01  4.9607e-01  1.3775e+07  0:02:36  219

 absolute pressure limited to 5.000000e+10 in 76 cells on zone 14524 

 turbulent viscosity limited to viscosity ratio of 1.000000e+05 in 105416 cells 
   282  1.1498e+07  2.9284e-02  3.5822e-02  3.7311e-02  4.2929e-02  9.9881e-01  4.9768e-01  7.7873e+06  0:02:35  218

 absolute pressure limited to 5.000000e+10 in 89 cells on zone 14524 

 turbulent viscosity limited to viscosity ratio of 1.000000e+05 in 105754 cells 
   283  1.3412e+07  2.9421e-02  3.8451e-02  3.4087e-02  4.6377e-02  9.9896e-01  4.9817e-01  1.6779e+06  0:02:35  217

 absolute pressure limited to 5.000000e+10 in 167 cells on zone 14524 

 turbulent viscosity limited to viscosity ratio of 1.000000e+05 in 106300 cells 
   284  1.6852e+07  3.6847e-02  4.4083e-02  4.0992e-02  5.2524e-02  9.9864e-01  4.9791e-01 -7.0416e+06  0:02:34  216

 absolute pressure limited to 5.000000e+10 in 520 cells on zone 14524 

 turbulent viscosity limited to viscosity ratio of 1.000000e+05 in 105608 cells 
   285  2.1338e+07  4.2046e-02  5.1045e-02  4.4838e-02  5.0625e-02  9.9771e-01  4.9726e-01 -1.3780e+07  0:02:37  215

 absolute pressure limited to 5.000000e+10 in 5568 cells on zone 14524 

 turbulent viscosity limited to viscosity ratio of 1.000000e+05 in 105174 cells 
   286  2.4156e+07  4.4507e-02  5.9054e-02  4.8415e-02  4.8565e-02  9.9053e-01  4.9366e-01 -1.6065e+07  0:02:40  214

 absolute pressure limited to 5.000000e+10 in 118192 cells on zone 14524 

 turbulent viscosity limited to viscosity ratio of 1.000000e+05 in 105031 cells 

  iter  continuity  x-velocity  y-velocity  z-velocity      energy           k       omega  report-def     time/iter
   287  2.5788e+07  3.9427e-02  5.6071e-02  4.5720e-02  4.8282e-02  9.9905e-01  4.9871e-01  2.4050e+04  0:02:42  213

 absolute pressure limited to 5.000000e+10 in 119156 cells on zone 14524 

 turbulent viscosity limited to viscosity ratio of 1.000000e+05 in 106001 cells 
   288  2.7834e+07  4.1343e-02  5.8217e-02  4.7585e-02  7.0693e-02  1.0010e+00  4.9991e-01  2.3788e+04  0:02:43  212

 absolute pressure limited to 5.000000e+10 in 119788 cells on zone 14524 

 turbulent viscosity limited to viscosity ratio of 1.000000e+05 in 105365 cells 
   289  2.5198e+07  4.3096e-02  6.0977e-02  4.6215e-02  5.6435e-02  1.0033e+00  5.0226e-01  2.3911e+04  0:02:44  211

 absolute pressure limited to 5.000000e+10 in 119984 cells on zone 14524 

 turbulent viscosity limited to viscosity ratio of 1.000000e+05 in 104597 cells 
   290  2.6617e+07  4.0477e-02  6.0811e-02  4.4786e-02  6.2998e-02  1.0001e+00  4.9988e-01  2.2764e+04  0:02:45  210

 absolute pressure limited to 5.000000e+10 in 119996 cells on zone 14524 

 turbulent viscosity limited to viscosity ratio of 1.000000e+05 in 105369 cells 
   291  2.8942e+07  3.8030e-02  5.8029e-02  4.7594e-02  6.2659e-02  1.0017e+00  5.0026e-01  2.0087e+04  0:02:45  209

 absolute pressure limited to 5.000000e+10 in 120051 cells on zone 14524 

 turbulent viscosity limited to viscosity ratio of 1.000000e+05 in 105228 cells 
   292  2.8899e+07  3.5303e-02  5.4923e-02  4.9122e-02  5.7886e-02  1.0006e+00  4.9999e-01  1.7896e+04  0:02:45  208

 absolute pressure limited to 5.000000e+10 in 120109 cells on zone 14524 

 turbulent viscosity limited to viscosity ratio of 1.000000e+05 in 104701 cells 
   293  3.0513e+07  3.4044e-02  5.6523e-02  5.1060e-02  5.6620e-02  1.0019e+00  4.9994e-01  1.3037e+04  0:02:45  207

 absolute pressure limited to 5.000000e+10 in 120123 cells on zone 14524 

 turbulent viscosity limited to viscosity ratio of 1.000000e+05 in 104536 cells 
   294  3.0919e+07  3.4716e-02  5.4380e-02  5.1973e-02  5.0969e-02  1.0007e+00  5.0008e-01  1.1039e+04  0:02:44  206

 absolute pressure limited to 5.000000e+10 in 120129 cells on zone 14524 

 turbulent viscosity limited to viscosity ratio of 1.000000e+05 in 104163 cells 
   295  3.2172e+07  3.2133e-02  5.9407e-02  5.4066e-02  5.1195e-02  1.0020e+00  5.0016e-01  8.5506e+03  0:02:44  205

 absolute pressure limited to 5.000000e+10 in 120153 cells on zone 14524 

 turbulent viscosity limited to viscosity ratio of 1.000000e+05 in 103898 cells 
   296  3.5958e+07  3.0747e-02  5.8011e-02  5.5949e-02  4.9864e-02  1.0017e+00  5.0049e-01  6.1728e+03  0:02:44  204

 absolute pressure limited to 5.000000e+10 in 120110 cells on zone 14524 

 turbulent viscosity limited to viscosity ratio of 1.000000e+05 in 103948 cells 
   297  3.7810e+07  3.1163e-02  5.9025e-02  5.3773e-02  5.2085e-02  1.0018e+00  4.9929e-01  4.8397e+03  0:02:44  203

 absolute pressure limited to 5.000000e+10 in 120122 cells on zone 14524 

 turbulent viscosity limited to viscosity ratio of 1.000000e+05 in 103172 cells 

  iter  continuity  x-velocity  y-velocity  z-velocity      energy           k       omega  report-def     time/iter
   298  3.6705e+07  3.0290e-02  5.8935e-02  5.8046e-02  5.1152e-02  1.0013e+00  4.9934e-01  2.0535e+03  0:02:44  202

 absolute pressure limited to 5.000000e+10 in 120153 cells on zone 14524 

 turbulent viscosity limited to viscosity ratio of 1.000000e+05 in 103596 cells 
   299  3.9808e+07  3.1846e-02  6.3259e-02  5.7149e-02  5.1408e-02  1.0089e+00  5.0106e-01  1.0130e+03  0:02:43  201

 absolute pressure limited to 5.000000e+10 in 120116 cells on zone 14524 

 turbulent viscosity limited to viscosity ratio of 1.000000e+05 in 102908 cells 
   300  4.5528e+07  2.8865e-02  5.5113e-02  6.1756e-02  5.1544e-02  1.0092e+00  5.0340e-01 -9.1441e+02  0:02:54  200

 absolute pressure limited to 5.000000e+10 in 120101 cells on zone 14524 

 turbulent viscosity limited to viscosity ratio of 1.000000e+05 in 103635 cells 
   301  4.4512e+07  2.8504e-02  5.6609e-02  5.8793e-02  5.5173e-02  1.0144e+00  5.0491e-01 -1.8135e+03  0:02:51  199

 absolute pressure limited to 5.000000e+10 in 120119 cells on zone 14524 

 turbulent viscosity limited to viscosity ratio of 1.000000e+05 in 103383 cells 
   302  4.5137e+07  2.9314e-02  6.0512e-02  5.3769e-02  5.1646e-02  1.0007e+00  4.9993e-01 -3.1709e+03  0:02:49  198

 absolute pressure limited to 5.000000e+10 in 120136 cells on zone 14524 

 turbulent viscosity limited to viscosity ratio of 1.000000e+05 in 104125 cells 
   303  5.0549e+07  2.9041e-02  6.2384e-02  5.7145e-02  5.5037e-02  1.0056e+00  5.0128e-01 -3.5419e+03  0:02:46  197

 absolute pressure limited to 5.000000e+10 in 120107 cells on zone 14524 

 turbulent viscosity limited to viscosity ratio of 1.000000e+05 in 104249 cells 
   304  5.2292e+07  2.7589e-02  6.1437e-02  5.9671e-02  5.6139e-02  1.0074e+00  5.0312e-01 -4.6602e+03  0:02:44  196

 absolute pressure limited to 5.000000e+10 in 120099 cells on zone 14524 

 turbulent viscosity limited to viscosity ratio of 1.000000e+05 in 104605 cells 
   305  5.2200e+07  2.7140e-02  5.7619e-02  5.9880e-02  6.1090e-02  1.0007e+00  5.0039e-01 -4.7354e+03  0:02:43  195

 absolute pressure limited to 5.000000e+10 in 120125 cells on zone 14524 

 turbulent viscosity limited to viscosity ratio of 1.000000e+05 in 104918 cells 
   306  5.9810e+07  3.0197e-02  6.7232e-02  5.7518e-02  5.5424e-02  1.0027e+00  5.0079e-01 -5.2577e+03  0:02:41  194

 absolute pressure limited to 5.000000e+10 in 120120 cells on zone 14524 

 turbulent viscosity limited to viscosity ratio of 1.000000e+05 in 105048 cells 
   307  6.8710e+07  2.7324e-02  7.1056e-02  5.7142e-02  5.7101e-02  1.0062e+00  5.0253e-01 -5.4044e+03  0:02:39  193

 absolute pressure limited to 5.000000e+10 in 120137 cells on zone 14524 

 turbulent viscosity limited to viscosity ratio of 1.000000e+05 in 105190 cells 
   308  7.4038e+07  2.5772e-02  6.2881e-02  5.6838e-02  7.7094e-02  1.0000e+00  5.0000e-01 -6.0499e+03  0:02:35  192

 absolute pressure limited to 5.000000e+10 in 120184 cells on zone 14524 

 turbulent viscosity limited to viscosity ratio of 1.000000e+05 in 105369 cells 

  iter  continuity  x-velocity  y-velocity  z-velocity      energy           k       omega  report-def     time/iter
   309  9.9790e+07  2.5831e-02  5.9919e-02  3.8923e-02  5.7826e-02  9.9990e-01  4.9993e-01 -4.4995e+03  0:02:31  191

 absolute pressure limited to 5.000000e+10 in 120256 cells on zone 14524 

 turbulent viscosity limited to viscosity ratio of 1.000000e+05 in 106321 cells 
   310  1.3586e+08  2.3537e-02  5.9665e-02  4.0522e-02  4.8089e-02  9.9879e-01  4.9973e-01 -6.5348e+03  0:02:27  190

 absolute pressure limited to 5.000000e+10 in 120276 cells on zone 14524 

 turbulent viscosity limited to viscosity ratio of 1.000000e+05 in 105220 cells 
   311  1.6692e+08  2.2588e-02  5.9576e-02  4.1195e-02  4.1813e-02  9.9443e-01  4.9915e-01 -5.2543e+03  0:02:24  189

 absolute pressure limited to 5.000000e+10 in 120276 cells on zone 14524 

 turbulent viscosity limited to viscosity ratio of 1.000000e+05 in 106625 cells 
   312  1.7749e+08  2.0783e-02  5.5549e-02  4.3424e-02  3.9188e-02  9.7673e-01  4.9704e-01 -6.2858e+03  0:02:21  188

 absolute pressure limited to 5.000000e+10 in 120281 cells on zone 14524 

 turbulent viscosity limited to viscosity ratio of 1.000000e+05 in 105624 cells 
   313  1.7897e+08  2.0164e-02  5.2933e-02  4.2107e-02  3.7681e-02  9.7232e-01  4.9301e-01 -4.9835e+03  0:02:19  187

 absolute pressure limited to 5.000000e+10 in 120276 cells on zone 14524 

 turbulent viscosity limited to viscosity ratio of 1.000000e+05 in 107001 cells 
   314  1.7953e+08  1.9017e-02  4.9676e-02  4.4543e-02  3.2759e-02  9.7703e-01  4.9233e-01 -4.7955e+03  0:02:17  186

 absolute pressure limited to 5.000000e+10 in 120283 cells on zone 14524 

 turbulent viscosity limited to viscosity ratio of 1.000000e+05 in 105825 cells 
   315  1.8868e+08  1.8949e-02  4.8693e-02  4.9607e-02  2.8204e-02  9.7971e-01  4.9040e-01 -3.5444e+03  0:02:16  185

 absolute pressure limited to 5.000000e+10 in 120268 cells on zone 14524 

 turbulent viscosity limited to viscosity ratio of 1.000000e+05 in 107222 cells 
   316  1.9520e+08  1.7357e-02  4.7706e-02  5.1641e-02  2.7729e-02  9.9869e-01  4.9888e-01 -2.8243e+03  0:02:14  184

 absolute pressure limited to 5.000000e+10 in 120249 cells on zone 14524 

 turbulent viscosity limited to viscosity ratio of 1.000000e+05 in 106199 cells 
   317  2.0059e+08  1.6267e-02  4.5737e-02  5.4072e-02  2.8060e-02  9.9508e-01  4.9820e-01 -1.7795e+03  0:02:13  183

 absolute pressure limited to 5.000000e+10 in 120268 cells on zone 14524 

 turbulent viscosity limited to viscosity ratio of 1.000000e+05 in 107335 cells 
   318  2.1055e+08  1.7603e-02  4.8332e-02  5.1964e-02  2.7393e-02  9.9986e-01  4.9986e-01 -7.1948e+02  0:02:11  182

 absolute pressure limited to 5.000000e+10 in 120258 cells on zone 14524 

 turbulent viscosity limited to viscosity ratio of 1.000000e+05 in 105949 cells 
   319  2.2188e+08  1.6858e-02  4.7700e-02  4.9813e-02  2.5474e-02  9.9934e-01  4.9961e-01 -3.1533e+02  0:02:10  181

 absolute pressure limited to 5.000000e+10 in 120272 cells on zone 14524 

 turbulent viscosity limited to viscosity ratio of 1.000000e+05 in 107317 cells 

  iter  continuity  x-velocity  y-velocity  z-velocity      energy           k       omega  report-def     time/iter
   320  2.2632e+08  1.6538e-02  4.6178e-02  4.8192e-02  2.6012e-02  9.9805e-01  4.9893e-01  1.4694e+03  0:02:10  180

 absolute pressure limited to 5.000000e+10 in 120259 cells on zone 14524 

 turbulent viscosity limited to viscosity ratio of 1.000000e+05 in 106275 cells 
   321  2.3483e+08  1.6629e-02  4.6562e-02  4.5774e-02  2.9688e-02  9.9682e-01  4.9823e-01  1.0903e+03  0:02:09  179

 absolute pressure limited to 5.000000e+10 in 120268 cells on zone 14524 

 turbulent viscosity limited to viscosity ratio of 1.000000e+05 in 107212 cells 
   322  2.3300e+08  1.6779e-02  4.6887e-02  4.2984e-02  2.9143e-02  9.9871e-01  4.9882e-01  3.4606e+03  0:02:08  178

 absolute pressure limited to 5.000000e+10 in 120270 cells on zone 14524 

 turbulent viscosity limited to viscosity ratio of 1.000000e+05 in 106744 cells 
   323  2.4531e+08  1.6075e-02  4.6068e-02  4.3214e-02  2.8547e-02  9.9679e-01  4.9797e-01  2.6865e+03  0:02:07  177

 absolute pressure limited to 5.000000e+10 in 120257 cells on zone 14524 

 turbulent viscosity limited to viscosity ratio of 1.000000e+05 in 107025 cells 
   324  2.5190e+08  1.5367e-02  4.4996e-02  4.4293e-02  2.7991e-02  9.9233e-01  4.9579e-01  5.0453e+03  0:02:06  176

 absolute pressure limited to 5.000000e+10 in 120269 cells on zone 14524 

 turbulent viscosity limited to viscosity ratio of 1.000000e+05 in 106488 cells 
   325  2.5437e+08  1.5352e-02  4.5457e-02  4.3297e-02  3.1185e-02  9.8311e-01  4.9137e-01  3.8862e+03  0:02:05  175

 absolute pressure limited to 5.000000e+10 in 120252 cells on zone 14524 

 turbulent viscosity limited to viscosity ratio of 1.000000e+05 in 107175 cells 
   326  2.5967e+08  1.5394e-02  4.6674e-02  4.0821e-02  2.8807e-02  9.9769e-01  4.9741e-01  6.3061e+03  0:02:04  174

 absolute pressure limited to 5.000000e+10 in 120275 cells on zone 14524 

 turbulent viscosity limited to viscosity ratio of 1.000000e+05 in 106484 cells 
   327  2.7511e+08  1.5001e-02  4.5771e-02  4.0246e-02  2.4873e-02  9.8778e-01  4.9375e-01  4.7056e+03  0:02:03  173

 absolute pressure limited to 5.000000e+10 in 120261 cells on zone 14524 

 turbulent viscosity limited to viscosity ratio of 1.000000e+05 in 107335 cells 
   328  2.7215e+08  1.4947e-02  4.4888e-02  3.7340e-02  2.3569e-02  9.8882e-01  4.9293e-01  7.5151e+03  0:02:02  172

 absolute pressure limited to 5.000000e+10 in 120263 cells on zone 14524 

 turbulent viscosity limited to viscosity ratio of 1.000000e+05 in 107206 cells 
   329  2.6577e+08  1.5371e-02  4.5606e-02  3.8451e-02  2.3071e-02  9.9278e-01  4.9345e-01  5.2462e+03  0:02:02  171

 absolute pressure limited to 5.000000e+10 in 120277 cells on zone 14524 

 turbulent viscosity limited to viscosity ratio of 1.000000e+05 in 107885 cells 
   330  2.7775e+08  1.4954e-02  4.3877e-02  3.8859e-02  2.2393e-02  9.7779e-01  4.8837e-01  7.0783e+03  0:02:01  170

 absolute pressure limited to 5.000000e+10 in 120264 cells on zone 14524 

 turbulent viscosity limited to viscosity ratio of 1.000000e+05 in 107741 cells 

  iter  continuity  x-velocity  y-velocity  z-velocity      energy           k       omega  report-def     time/iter
   331  2.6831e+08  1.5465e-02  4.4477e-02  3.8926e-02  2.4624e-02  9.7994e-01  4.8617e-01  4.8461e+03  0:02:00  169

 absolute pressure limited to 5.000000e+10 in 120284 cells on zone 14524 

 turbulent viscosity limited to viscosity ratio of 1.000000e+05 in 108344 cells 
   332  2.7448e+08  1.5225e-02  4.5942e-02  4.1672e-02  2.3911e-02  9.8180e-01  4.8435e-01  5.5243e+03  0:01:59  168

 absolute pressure limited to 5.000000e+10 in 120267 cells on zone 14524 

 turbulent viscosity limited to viscosity ratio of 1.000000e+05 in 107961 cells 
   333  2.7933e+08  1.5870e-02  4.7384e-02  4.2626e-02  2.5059e-02  9.9543e-01  4.9524e-01  2.3340e+03  0:01:58  167

 absolute pressure limited to 5.000000e+10 in 120255 cells on zone 14524 

 turbulent viscosity limited to viscosity ratio of 1.000000e+05 in 108679 cells 
   334  2.5601e+08  1.5060e-02  4.6685e-02  4.4382e-02  2.4376e-02  9.9345e-01  4.9467e-01  3.4290e+03  0:01:58  166

 absolute pressure limited to 5.000000e+10 in 120275 cells on zone 14524 

 turbulent viscosity limited to viscosity ratio of 1.000000e+05 in 108571 cells 
   335  2.6614e+08  1.6631e-02  4.6895e-02  4.4969e-02  2.7946e-02  9.8317e-01  4.9259e-01  1.0411e+03  0:01:57  165

 absolute pressure limited to 5.000000e+10 in 120271 cells on zone 14524 

 turbulent viscosity limited to viscosity ratio of 1.000000e+05 in 109398 cells 
   336  2.8822e+08  1.6723e-02  4.9973e-02  4.7567e-02  3.1664e-02  9.9973e-01  4.9964e-01  3.0838e+03  0:01:56  164

 absolute pressure limited to 5.000000e+10 in 120270 cells on zone 14524 

 turbulent viscosity limited to viscosity ratio of 1.000000e+05 in 109768 cells 
   337  2.9277e+08  1.5653e-02  4.9485e-02  4.5642e-02  3.0663e-02  9.9874e-01  4.9910e-01  1.9518e+03  0:01:56  163

 absolute pressure limited to 5.000000e+10 in 120271 cells on zone 14524 

 turbulent viscosity limited to viscosity ratio of 1.000000e+05 in 111764 cells 
   338  2.9567e+08  1.6815e-02  5.1231e-02  4.3207e-02  2.8307e-02  9.9924e-01  4.9920e-01  3.0556e+03  0:01:55  162
 temperature limited to 5.000000e+03 in 1 cells on zone 14524 in domain 1
 
 absolute pressure limited to 5.000000e+10 in 120267 cells on zone 14524 

 turbulent viscosity limited to viscosity ratio of 1.000000e+05 in 112237 cells 
   339  3.0127e+08  1.5695e-02  4.9440e-02  4.2127e-02  2.9605e-02  9.9589e-01  4.9812e-01  8.6116e+02  0:01:54  161
 temperature limited to 5.000000e+03 in 7 cells on zone 14524 in domain 1
 
 absolute pressure limited to 5.000000e+10 in 120254 cells on zone 14524 

 turbulent viscosity limited to viscosity ratio of 1.000000e+05 in 112926 cells 
   340  3.0000e+08  1.5788e-02  4.9961e-02  4.0893e-02  2.8729e-02  9.9080e-01  4.9633e-01  2.5992e+03  0:01:57  160
 temperature limited to 5.000000e+03 in 15 cells on zone 14524 in domain 1
 
 absolute pressure limited to 5.000000e+10 in 120257 cells on zone 14524 

 turbulent viscosity limited to viscosity ratio of 1.000000e+05 in 112660 cells 
   341  3.0390e+08  1.5775e-02  4.9012e-02  4.0927e-02  2.7684e-02  9.9468e-01  4.9555e-01  2.1466e+03  0:01:55  159
 temperature limited to 5.000000e+03 in 38 cells on zone 14524 in domain 1
 
 absolute pressure limited to 5.000000e+10 in 120260 cells on zone 14524 

 turbulent viscosity limited to viscosity ratio of 1.000000e+05 in 113384 cells 

  iter  continuity  x-velocity  y-velocity  z-velocity      energy           k       omega  report-def     time/iter
   342  3.0826e+08  1.5354e-02  4.6007e-02  4.1500e-02  2.8103e-02  9.8661e-01  4.9148e-01  3.4730e+03  0:01:54  158
 temperature limited to 5.000000e+03 in 67 cells on zone 14524 in domain 1
  temperature limited to 5.000000e+03 on 1 faces

 absolute pressure limited to 5.000000e+10 in 120263 cells on zone 14524 

 turbulent viscosity limited to viscosity ratio of 1.000000e+05 in 113128 cells 
   343  3.1809e+08  1.5368e-02  4.7745e-02  4.2215e-02  2.7916e-02  9.8326e-01  4.8895e-01  2.8960e+03  0:01:53  157
 temperature limited to 5.000000e+03 in 108 cells on zone 14524 in domain 1
  temperature limited to 5.000000e+03 on 2 faces

 absolute pressure limited to 5.000000e+10 in 120262 cells on zone 14524 

 turbulent viscosity limited to viscosity ratio of 1.000000e+05 in 114155 cells 
   344  3.2878e+08  1.6172e-02  4.9310e-02  4.1853e-02  2.5532e-02  9.7531e-01  4.8433e-01  4.1639e+03  0:01:52  156
 temperature limited to 5.000000e+03 in 178 cells on zone 14524 in domain 1
  temperature limited to 5.000000e+03 on 3 faces

 absolute pressure limited to 5.000000e+10 in 120247 cells on zone 14524 

 turbulent viscosity limited to viscosity ratio of 1.000000e+05 in 113843 cells 
   345  3.1174e+08  1.5753e-02  4.9268e-02  4.0340e-02  2.7720e-02  9.9200e-01  4.9157e-01  2.7343e+03  0:01:52  155
 temperature limited to 5.000000e+03 in 249 cells on zone 14524 in domain 1
  temperature limited to 5.000000e+03 on 14 faces

 absolute pressure limited to 5.000000e+10 in 120253 cells on zone 14524 

 turbulent viscosity limited to viscosity ratio of 1.000000e+05 in 114233 cells 
   346  3.0839e+08  1.6047e-02  4.9758e-02  4.1300e-02  2.9465e-02  9.8183e-01  4.8645e-01  4.3226e+03  0:01:51  154
 temperature limited to 5.000000e+03 in 281 cells on zone 14524 in domain 1
  temperature limited to 5.000000e+03 on 30 faces

 absolute pressure limited to 5.000000e+10 in 120258 cells on zone 14524 

 turbulent viscosity limited to viscosity ratio of 1.000000e+05 in 113806 cells 
   347  3.2881e+08  1.6221e-02  4.9483e-02  4.1100e-02  2.9094e-02  9.9959e-01  4.9960e-01  3.2246e+03  0:01:50  153
 temperature limited to 5.000000e+03 in 324 cells on zone 14524 in domain 1
  temperature limited to 5.000000e+03 on 57 faces

 absolute pressure limited to 5.000000e+10 in 120256 cells on zone 14524 

 turbulent viscosity limited to viscosity ratio of 1.000000e+05 in 114342 cells 
   348  3.2277e+08  1.5288e-02  4.7351e-02  4.1732e-02  3.0098e-02  9.9792e-01  4.9911e-01  4.8310e+03  0:01:49  152
 temperature limited to 5.000000e+03 on 30 faces

 absolute pressure limited to 5.000000e+10 in 120253 cells on zone 14524 

 turbulent viscosity limited to viscosity ratio of 1.000000e+05 in 114145 cells 
   349  3.1718e+08  1.5871e-02  4.9024e-02  4.1510e-02  2.9741e-02  9.9505e-01  4.9792e-01  2.3388e+03  0:01:47  151
 temperature limited to 5.000000e+03 in 307 cells on zone 14524 in domain 1
 
 absolute pressure limited to 5.000000e+10 in 120263 cells on zone 14524 

 turbulent viscosity limited to viscosity ratio of 1.000000e+05 in 114427 cells 
   350  3.3140e+08  1.5428e-02  4.7683e-02  4.1187e-02  3.2133e-02  9.9349e-01  4.9669e-01  3.0593e+03  0:01:47  150

 absolute pressure limited to 5.000000e+10 in 120274 cells on zone 14524 

 turbulent viscosity limited to viscosity ratio of 1.000000e+05 in 114173 cells 
   351  3.4836e+08  1.5894e-02  4.8831e-02  4.0368e-02  2.8282e-02  9.7914e-01  4.9226e-01  2.4314e+03  0:01:47  149
 temperature limited to 5.000000e+03 in 15 cells on zone 14524 in domain 1
 
 absolute pressure limited to 5.000000e+10 in 120267 cells on zone 14524 

 turbulent viscosity limited to viscosity ratio of 1.000000e+05 in 114654 cells 
   352  3.4647e+08  1.5207e-02  4.7979e-02  3.7790e-02  2.5988e-02  9.9597e-01  4.9513e-01  2.7456e+03  0:01:46  148
 temperature limited to 5.000000e+03 in 76 cells on zone 14524 in domain 1
 
 absolute pressure limited to 5.000000e+10 in 120253 cells on zone 14524 

 turbulent viscosity limited to viscosity ratio of 1.000000e+05 in 114196 cells 

  iter  continuity  x-velocity  y-velocity  z-velocity      energy           k       omega  report-def     time/iter
   353  3.3197e+08  1.4962e-02  4.5438e-02  3.5998e-02  2.9156e-02  9.8773e-01  4.9087e-01 -3.5141e+02  0:01:45  147
 temperature limited to 5.000000e+03 in 192 cells on zone 14524 in domain 1
 
 absolute pressure limited to 5.000000e+10 in 120249 cells on zone 14524 

 turbulent viscosity limited to viscosity ratio of 1.000000e+05 in 114657 cells 
   354  3.3335e+08  1.5210e-02  4.6198e-02  3.7251e-02  3.3493e-02  9.8163e-01  4.8727e-01  1.0171e+02  0:01:44  146
 temperature limited to 5.000000e+03 in 114 cells on zone 14524 in domain 1
 
 absolute pressure limited to 5.000000e+10 in 120263 cells on zone 14524 

 turbulent viscosity limited to viscosity ratio of 1.000000e+05 in 114313 cells 
   355  3.5560e+08  1.5715e-02  4.8970e-02  3.8053e-02  3.3052e-02  9.9644e-01  4.9467e-01 -7.4241e+02  0:01:43  145
 temperature limited to 5.000000e+03 in 282 cells on zone 14524 in domain 1
 
 absolute pressure limited to 5.000000e+10 in 120249 cells on zone 14524 

 turbulent viscosity limited to viscosity ratio of 1.000000e+05 in 114726 cells 
   356  3.5579e+08  1.4360e-02  4.6734e-02  3.6667e-02  3.2398e-02  9.9900e-01  4.9879e-01  6.4714e+02  0:01:42  144
 temperature limited to 5.000000e+03 in 232 cells on zone 14524 in domain 1
 
 absolute pressure limited to 5.000000e+10 in 120260 cells on zone 14524 

 turbulent viscosity limited to viscosity ratio of 1.000000e+05 in 114277 cells 
   357  3.5563e+08  1.5413e-02  4.7082e-02  3.6684e-02  3.3124e-02  9.9560e-01  4.9743e-01 -1.0849e+03  0:01:42  143
 temperature limited to 5.000000e+03 in 297 cells on zone 14524 in domain 1
 
 absolute pressure limited to 5.000000e+10 in 120248 cells on zone 14524 

 turbulent viscosity limited to viscosity ratio of 1.000000e+05 in 114841 cells 
   358  3.6232e+08  1.5264e-02  4.7987e-02  3.5234e-02  3.0666e-02  9.8744e-01  4.9434e-01 -3.3087e+02  0:01:41  142
 temperature limited to 5.000000e+03 in 718 cells on zone 14524 in domain 1
  temperature limited to 5.000000e+03 on 8 faces

 absolute pressure limited to 5.000000e+10 in 120257 cells on zone 14524 

 turbulent viscosity limited to viscosity ratio of 1.000000e+05 in 113982 cells 
   359  3.7019e+08  1.5185e-02  4.7075e-02  3.3657e-02  2.6870e-02  9.5604e-01  4.8675e-01 -6.2476e+02  0:01:40  141
 temperature limited to 5.000000e+03 in 840 cells on zone 14524 in domain 1
  temperature limited to 5.000000e+03 on 12 faces

 absolute pressure limited to 5.000000e+10 in 120254 cells on zone 14524 

 turbulent viscosity limited to viscosity ratio of 1.000000e+05 in 114832 cells 
   360  3.6241e+08  1.4940e-02  4.5699e-02  3.2616e-02  3.2538e-02  9.7576e-01  4.8245e-01 -1.4934e+02  0:01:40  140
 temperature limited to 5.000000e+03 in 575 cells on zone 14524 in domain 1
  temperature limited to 5.000000e+03 on 9 faces

 absolute pressure limited to 5.000000e+10 in 120264 cells on zone 14524 

 turbulent viscosity limited to viscosity ratio of 1.000000e+05 in 113965 cells 
   361  3.5604e+08  1.5033e-02  4.5428e-02  3.4296e-02  2.8157e-02  9.9108e-01  4.8971e-01 -3.4590e+02  0:01:39  139
 temperature limited to 5.000000e+03 in 641 cells on zone 14524 in domain 1
  temperature limited to 5.000000e+03 on 14 faces

 absolute pressure limited to 5.000000e+10 in 120247 cells on zone 14524 

 turbulent viscosity limited to viscosity ratio of 1.000000e+05 in 114932 cells 
   362  3.5309e+08  1.4737e-02  4.4255e-02  3.4352e-02  2.7778e-02  9.9807e-01  4.9733e-01  3.9224e+02  0:01:38  138
 temperature limited to 5.000000e+03 in 1260 cells on zone 14524 in domain 1
  temperature limited to 5.000000e+03 on 27 faces

 absolute pressure limited to 5.000000e+10 in 120267 cells on zone 14524 

 turbulent viscosity limited to viscosity ratio of 1.000000e+05 in 114024 cells 
   363  3.5042e+08  1.5714e-02  4.7592e-02  3.5594e-02  2.5939e-02  9.9345e-01  4.9552e-01 -1.1150e+03  0:01:38  137
 temperature limited to 5.000000e+03 in 925 cells on zone 14524 in domain 1
  temperature limited to 5.000000e+03 on 26 faces

 absolute pressure limited to 5.000000e+10 in 120245 cells on zone 14524 

 turbulent viscosity limited to viscosity ratio of 1.000000e+05 in 114924 cells 

  iter  continuity  x-velocity  y-velocity  z-velocity      energy           k       omega  report-def     time/iter
   364  3.5195e+08  1.5487e-02  4.6653e-02  3.6135e-02  2.9577e-02  9.8472e-01  4.9163e-01 -3.6608e+02  0:01:37  136
 temperature limited to 5.000000e+03 in 590 cells on zone 14524 in domain 1
  temperature limited to 5.000000e+03 on 30 faces

 absolute pressure limited to 5.000000e+10 in 120243 cells on zone 14524 

 turbulent viscosity limited to viscosity ratio of 1.000000e+05 in 113781 cells 
[...]
 temperature limited to 1.000000e+00 in 2021 cells on zone 14524 in domain 1
  temperature limited to 5.000000e+03 in 508 cells on zone 14524 in domain 1
  temperature limited to 5.000000e+03 on 115 faces

 absolute pressure limited to 5.000000e+10 in 120164 cells on zone 14524 

 turbulent viscosity limited to viscosity ratio of 1.000000e+05 in 110109 cells 
   455  8.7734e+08  1.6556e-02  4.9306e-02  2.7534e-02  4.5740e-02  9.8270e-01  4.8523e-01 -4.2849e+04  0:00:33   45
 temperature limited to 1.000000e+00 in 2301 cells on zone 14524 in domain 1
  temperature limited to 5.000000e+03 in 547 cells on zone 14524 in domain 1
  temperature limited to 5.000000e+03 on 83 faces

 absolute pressure limited to 5.000000e+10 in 120135 cells on zone 14524 

 turbulent viscosity limited to viscosity ratio of 1.000000e+05 in 110068 cells 
   456  8.1127e+08  1.6564e-02  4.9543e-02  2.8123e-02  5.0010e-02  9.8692e-01  4.8594e-01 -4.3065e+04  0:00:32   44
 temperature limited to 1.000000e+00 in 2325 cells on zone 14524 in domain 1
  temperature limited to 5.000000e+03 on 34 faces

 absolute pressure limited to 5.000000e+10 in 120170 cells on zone 14524 

 turbulent viscosity limited to viscosity ratio of 1.000000e+05 in 110588 cells 
   457  8.3668e+08  1.6920e-02  4.8847e-02  2.6864e-02  4.5516e-02  9.9941e-01  4.9911e-01 -4.7564e+04  0:00:31   43
 temperature limited to 1.000000e+00 in 2668 cells on zone 14524 in domain 1
 
 absolute pressure limited to 5.000000e+10 in 120158 cells on zone 14524 

 turbulent viscosity limited to viscosity ratio of 1.000000e+05 in 110514 cells 
   458  8.8984e+08  1.6163e-02  4.8116e-02  2.8960e-02  4.5174e-02  9.9907e-01  4.9911e-01 -4.7659e+04  0:00:30   42
 temperature limited to 1.000000e+00 in 2842 cells on zone 14524 in domain 1
 
 absolute pressure limited to 5.000000e+10 in 120138 cells on zone 14524 

 turbulent viscosity limited to viscosity ratio of 1.000000e+05 in 110833 cells 
   459  8.5349e+08  1.6015e-02  4.6749e-02  3.1710e-02  4.4255e-02  9.9939e-01  4.9932e-01 -5.0467e+04  0:00:29   41
 temperature limited to 1.000000e+00 in 3479 cells on zone 14524 in domain 1
 
 absolute pressure limited to 5.000000e+10 in 120178 cells on zone 14524 

 turbulent viscosity limited to viscosity ratio of 1.000000e+05 in 110771 cells 
   460  8.7196e+08  1.5715e-02  4.5165e-02  2.9221e-02  4.4290e-02  9.9660e-01  4.9832e-01 -5.0790e+04  0:00:29   40
 temperature limited to 1.000000e+00 in 2860 cells on zone 14524 in domain 1
 
 absolute pressure limited to 5.000000e+10 in 120140 cells on zone 14524 

 turbulent viscosity limited to viscosity ratio of 1.000000e+05 in 111168 cells 
   461  8.7997e+08  1.5266e-02  4.4813e-02  3.0246e-02  4.5440e-02  9.8677e-01  4.9620e-01 -5.3622e+04  0:00:28   39
 temperature limited to 1.000000e+00 in 3610 cells on zone 14524 in domain 1
  temperature limited to 5.000000e+03 in 1 cells on zone 14524 in domain 1
 
 absolute pressure limited to 5.000000e+10 in 120155 cells on zone 14524 

 turbulent viscosity limited to viscosity ratio of 1.000000e+05 in 111036 cells 
   462  9.2694e+08  1.6152e-02  4.5915e-02  3.2902e-02  4.6361e-02  9.8353e-01  4.9297e-01 -5.4718e+04  0:00:27   38
 temperature limited to 1.000000e+00 in 4232 cells on zone 14524 in domain 1
  temperature limited to 5.000000e+03 in 26 cells on zone 14524 in domain 1
 
 absolute pressure limited to 5.000000e+10 in 120143 cells on zone 14524 

 turbulent viscosity limited to viscosity ratio of 1.000000e+05 in 111131 cells 

  iter  continuity  x-velocity  y-velocity  z-velocity      energy           k       omega  report-def     time/iter
   463  9.7941e+08  1.5705e-02  4.4833e-02  3.2175e-02  4.7087e-02  9.9743e-01  4.9666e-01 -5.6835e+04  0:00:26   37
 temperature limited to 1.000000e+00 in 5248 cells on zone 14524 in domain 1
  temperature limited to 5.000000e+03 in 67 cells on zone 14524 in domain 1
 
 absolute pressure limited to 5.000000e+10 in 120153 cells on zone 14524 

 turbulent viscosity limited to viscosity ratio of 1.000000e+05 in 111043 cells 
   464  9.6558e+08  1.6445e-02  4.8655e-02  3.2657e-02  4.7743e-02  9.9394e-01  4.9497e-01 -5.9748e+04  0:00:25   36
 temperature limited to 1.000000e+00 in 6003 cells on zone 14524 in domain 1
  temperature limited to 5.000000e+03 in 132 cells on zone 14524 in domain 1
 
 absolute pressure limited to 5.000000e+10 in 120153 cells on zone 14524 

 turbulent viscosity limited to viscosity ratio of 1.000000e+05 in 110931 cells 
   465  1.0474e+09  1.7574e-02  5.2236e-02  3.2031e-02  4.5591e-02  9.9550e-01  4.9540e-01 -6.3594e+04  0:00:25   35
 temperature limited to 1.000000e+00 in 6399 cells on zone 14524 in domain 1
  temperature limited to 5.000000e+03 in 187 cells on zone 14524 in domain 1
 
 absolute pressure limited to 5.000000e+10 in 120143 cells on zone 14524 

 turbulent viscosity limited to viscosity ratio of 1.000000e+05 in 110783 cells 
   466  1.0974e+09  1.6887e-02  4.9752e-02  2.9030e-02  4.6406e-02  9.9925e-01  4.9902e-01 -6.6561e+04  0:00:24   34
 temperature limited to 1.000000e+00 in 7603 cells on zone 14524 in domain 1
  temperature limited to 5.000000e+03 in 240 cells on zone 14524 in domain 1
  temperature limited to 5.000000e+03 on 2 faces

 absolute pressure limited to 5.000000e+10 in 120156 cells on zone 14524 

 turbulent viscosity limited to viscosity ratio of 1.000000e+05 in 110750 cells 
   467  1.0825e+09  1.6214e-02  4.8777e-02  3.1125e-02  4.4597e-02  9.9902e-01  4.9908e-01 -6.8118e+04  0:00:23   33
 temperature limited to 1.000000e+00 in 8799 cells on zone 14524 in domain 1
  temperature limited to 5.000000e+03 in 2 cells on zone 14524 in domain 1
  temperature limited to 5.000000e+03 on 3 faces

 absolute pressure limited to 5.000000e+10 in 120158 cells on zone 14524 

 turbulent viscosity limited to viscosity ratio of 1.000000e+05 in 110654 cells 
   468  1.1655e+09  1.5816e-02  4.7084e-02  2.9766e-02  4.2010e-02  9.9801e-01  4.9853e-01 -7.0614e+04  0:00:23   32
 temperature limited to 1.000000e+00 in 9982 cells on zone 14524 in domain 1
  temperature limited to 5.000000e+03 in 240 cells on zone 14524 in domain 1
 
 absolute pressure limited to 5.000000e+10 in 120114 cells on zone 14524 

 turbulent viscosity limited to viscosity ratio of 1.000000e+05 in 110627 cells 
   469  1.1519e+09  1.5437e-02  4.5445e-02  3.1221e-02  4.5216e-02  9.9851e-01  4.9879e-01 -7.5967e+04  0:00:22   31
 temperature limited to 1.000000e+00 in 10569 cells on zone 14524 in domain 1
  temperature limited to 5.000000e+03 in 69 cells on zone 14524 in domain 1
 
 absolute pressure limited to 5.000000e+10 in 120146 cells on zone 14524 

 turbulent viscosity limited to viscosity ratio of 1.000000e+05 in 110794 cells 
   470  1.1284e+09  1.5176e-02  4.4490e-02  3.1155e-02  4.6542e-02  9.9287e-01  4.9738e-01 -8.0898e+04  0:00:21   30
 temperature limited to 1.000000e+00 in 11933 cells on zone 14524 in domain 1
  temperature limited to 5.000000e+03 in 8 cells on zone 14524 in domain 1
 
 absolute pressure limited to 5.000000e+10 in 120140 cells on zone 14524 

 turbulent viscosity limited to viscosity ratio of 1.000000e+05 in 110875 cells 
   471  1.2141e+09  1.4909e-02  4.4078e-02  3.2208e-02  4.6756e-02  9.9983e-01  4.9977e-01 -8.6890e+04  0:00:20   29
 temperature limited to 1.000000e+00 in 12818 cells on zone 14524 in domain 1
  temperature limited to 5.000000e+03 in 42 cells on zone 14524 in domain 1
 
 absolute pressure limited to 5.000000e+10 in 120146 cells on zone 14524 

 turbulent viscosity limited to viscosity ratio of 1.000000e+05 in 110372 cells 
   472  1.2879e+09  1.5271e-02  4.4873e-02  3.1208e-02  4.2382e-02  9.9933e-01  4.9955e-01 -9.2470e+04  0:00:20   28
 temperature limited to 1.000000e+00 in 13394 cells on zone 14524 in domain 1
 
 absolute pressure limited to 5.000000e+10 in 120122 cells on zone 14524 

 turbulent viscosity limited to viscosity ratio of 1.000000e+05 in 110309 cells 
   473  1.2678e+09  1.4863e-02  4.4982e-02  2.9521e-02  4.3580e-02  9.9664e-01  4.9893e-01 -9.8840e+04  0:00:19   27
 temperature limited to 1.000000e+00 in 13423 cells on zone 14524 in domain 1
 
 absolute pressure limited to 5.000000e+10 in 120137 cells on zone 14524 

 turbulent viscosity limited to viscosity ratio of 1.000000e+05 in 110293 cells 

  iter  continuity  x-velocity  y-velocity  z-velocity      energy           k       omega  report-def     time/iter
   474  1.2389e+09  1.4831e-02  4.4421e-02  2.8350e-02  4.8252e-02  9.9100e-01  4.9840e-01 -1.0504e+05  0:00:18   26
 temperature limited to 1.000000e+00 in 3519 cells on zone 14524 in domain 1
  temperature limited to 1.000000e+00 on 1 faces

 absolute pressure limited to 5.000000e+10 in 120129 cells on zone 14524 

 turbulent viscosity limited to viscosity ratio of 1.000000e+05 in 109984 cells 
   475  1.3072e+09  1.6185e-02  4.8929e-02  2.8442e-02  4.7731e-02  9.9916e-01  4.9910e-01 -1.1274e+05  0:00:18   25
 temperature limited to 1.000000e+00 in 13267 cells on zone 14524 in domain 1
 
 absolute pressure limited to 5.000000e+10 in 120135 cells on zone 14524 

 turbulent viscosity limited to viscosity ratio of 1.000000e+05 in 109800 cells 
   476  1.3784e+09  1.6122e-02  4.8623e-02  2.9084e-02  4.5032e-02  9.9931e-01  4.9930e-01 -1.1926e+05  0:00:17   24
 temperature limited to 1.000000e+00 in 14413 cells on zone 14524 in domain 1
 
 absolute pressure limited to 5.000000e+10 in 120123 cells on zone 14524 

 turbulent viscosity limited to viscosity ratio of 1.000000e+05 in 109867 cells 
   477  1.4057e+09  1.5685e-02  4.7859e-02  2.8528e-02  4.3784e-02  9.9708e-01  4.9847e-01 -1.2481e+05  0:00:16   23
 temperature limited to 1.000000e+00 in 1978 cells on zone 14524 in domain 1
 
 absolute pressure limited to 5.000000e+10 in 120115 cells on zone 14524 

 turbulent viscosity limited to viscosity ratio of 1.000000e+05 in 110153 cells 
   478  1.3502e+09  1.5522e-02  4.7086e-02  2.8289e-02  4.6178e-02  9.8345e-01  4.9612e-01 -1.3012e+05  0:00:16   22
 temperature limited to 1.000000e+00 in 11057 cells on zone 14524 in domain 1
  temperature limited to 5.000000e+03 in 4 cells on zone 14524 in domain 1
 
 absolute pressure limited to 5.000000e+10 in 120135 cells on zone 14524 

 turbulent viscosity limited to viscosity ratio of 1.000000e+05 in 110067 cells 
   479  1.3668e+09  1.5582e-02  4.7021e-02  2.7600e-02  4.4831e-02  9.8977e-01  4.9357e-01 -1.3566e+05  0:00:15   21
 temperature limited to 1.000000e+00 in 12132 cells on zone 14524 in domain 1
  temperature limited to 5.000000e+03 in 37 cells on zone 14524 in domain 1
 
 absolute pressure limited to 5.000000e+10 in 120114 cells on zone 14524 

 turbulent viscosity limited to viscosity ratio of 1.000000e+05 in 110494 cells 
   480  1.4066e+09  1.4817e-02  4.4677e-02  2.9233e-02  4.9132e-02  9.8197e-01  4.8834e-01 -1.3278e+05  0:00:14   20
 temperature limited to 1.000000e+00 in 14480 cells on zone 14524 in domain 1
  temperature limited to 5.000000e+03 in 41 cells on zone 14524 in domain 1
 
 absolute pressure limited to 5.000000e+10 in 120116 cells on zone 14524 

 turbulent viscosity limited to viscosity ratio of 1.000000e+05 in 110236 cells 
   481  1.4018e+09  1.5489e-02  4.6723e-02  2.8535e-02  4.7388e-02  9.9962e-01  4.9948e-01 -1.3776e+05  0:00:13   19
 temperature limited to 1.000000e+00 in 16970 cells on zone 14524 in domain 1
  temperature limited to 5.000000e+03 in 48 cells on zone 14524 in domain 1
 
 absolute pressure limited to 5.000000e+10 in 120143 cells on zone 14524 

 turbulent viscosity limited to viscosity ratio of 1.000000e+05 in 110550 cells 
   482  1.4389e+09  1.6392e-02  4.9204e-02  3.0470e-02  4.2982e-02  9.9757e-01  4.9859e-01 -1.3554e+05  0:00:13   18
 temperature limited to 1.000000e+00 in 18884 cells on zone 14524 in domain 1
 
 absolute pressure limited to 5.000000e+10 in 120103 cells on zone 14524 

 turbulent viscosity limited to viscosity ratio of 1.000000e+05 in 110554 cells 
   483  1.4764e+09  1.5459e-02  4.6958e-02  2.9982e-02  4.3205e-02  9.8767e-01  4.9632e-01 -1.4195e+05  0:00:12   17
 temperature limited to 1.000000e+00 in 20284 cells on zone 14524 in domain 1
 
 absolute pressure limited to 5.000000e+10 in 120101 cells on zone 14524 

 turbulent viscosity limited to viscosity ratio of 1.000000e+05 in 110384 cells 
   484  1.3980e+09  1.5847e-02  4.7890e-02  3.1155e-02  4.4731e-02  9.6635e-01  4.9176e-01 -1.4393e+05  0:00:11   16
 temperature limited to 1.000000e+00 in 20203 cells on zone 14524 in domain 1
 
 absolute pressure limited to 5.000000e+10 in 120128 cells on zone 14524 

 turbulent viscosity limited to viscosity ratio of 1.000000e+05 in 110040 cells 

  iter  continuity  x-velocity  y-velocity  z-velocity      energy           k       omega  report-def     time/iter
   485  1.4423e+09  1.5999e-02  4.7042e-02  3.0353e-02  4.2818e-02  9.9276e-01  4.9178e-01 -1.4458e+05  0:00:11   15
 temperature limited to 1.000000e+00 in 20081 cells on zone 14524 in domain 1
  temperature limited to 1.000000e+00 on 1 faces

 absolute pressure limited to 5.000000e+10 in 120131 cells on zone 14524 

 turbulent viscosity limited to viscosity ratio of 1.000000e+05 in 109677 cells 
   486  1.5157e+09  1.5508e-02  4.7296e-02  3.1790e-02  4.4365e-02  9.9967e-01  4.9961e-01 -1.4411e+05  0:00:10   14
 temperature limited to 1.000000e+00 in 20782 cells on zone 14524 in domain 1
  temperature limited to 1.000000e+00 on 2 faces

 absolute pressure limited to 5.000000e+10 in 120116 cells on zone 14524 

 turbulent viscosity limited to viscosity ratio of 1.000000e+05 in 109460 cells 
   487  1.4765e+09  1.5703e-02  4.8449e-02  2.8496e-02  4.3537e-02  9.9881e-01  4.9922e-01 -1.4495e+05  0:00:09   13
 temperature limited to 1.000000e+00 in 21617 cells on zone 14524 in domain 1
  temperature limited to 1.000000e+00 on 6 faces

 absolute pressure limited to 5.000000e+10 in 120113 cells on zone 14524 

 turbulent viscosity limited to viscosity ratio of 1.000000e+05 in 109415 cells 
   488  1.4633e+09  1.5637e-02  4.7183e-02  2.8309e-02  4.8292e-02  9.9597e-01  4.9855e-01 -1.4334e+05  0:00:08   12
 temperature limited to 1.000000e+00 in 23037 cells on zone 14524 in domain 1
  temperature limited to 1.000000e+00 on 6 faces

 absolute pressure limited to 5.000000e+10 in 120131 cells on zone 14524 

 turbulent viscosity limited to viscosity ratio of 1.000000e+05 in 109251 cells 
   489  1.4442e+09  1.6200e-02  4.9054e-02  2.9340e-02  5.0573e-02  9.9649e-01  4.9770e-01 -1.4488e+05  0:00:08   11
 temperature limited to 1.000000e+00 in 22398 cells on zone 14524 in domain 1
  temperature limited to 1.000000e+00 on 2 faces

 absolute pressure limited to 5.000000e+10 in 120110 cells on zone 14524 

 turbulent viscosity limited to viscosity ratio of 1.000000e+05 in 109472 cells 
   490  1.4536e+09  1.6237e-02  4.9876e-02  2.9531e-02  5.0223e-02  9.9932e-01  4.9916e-01 -1.4314e+05  0:00:07   10
 temperature limited to 1.000000e+00 in 24338 cells on zone 14524 in domain 1
  temperature limited to 5.000000e+03 in 1 cells on zone 14524 in domain 1
 
 absolute pressure limited to 5.000000e+10 in 120122 cells on zone 14524 

 turbulent viscosity limited to viscosity ratio of 1.000000e+05 in 109479 cells 
   491  1.5409e+09  1.5797e-02  4.8132e-02  3.0462e-02  4.5683e-02  9.9654e-01  4.9786e-01 -1.4798e+05  0:00:06    9
 temperature limited to 1.000000e+00 in 24598 cells on zone 14524 in domain 1
  temperature limited to 5.000000e+03 in 7 cells on zone 14524 in domain 1
 
 absolute pressure limited to 5.000000e+10 in 120115 cells on zone 14524 

 turbulent viscosity limited to viscosity ratio of 1.000000e+05 in 109228 cells 
   492  1.5583e+09  1.4979e-02  4.5810e-02  2.9226e-02  4.7633e-02  9.9601e-01  4.9706e-01 -1.5263e+05  0:00:06    8
 temperature limited to 1.000000e+00 in 23826 cells on zone 14524 in domain 1
  temperature limited to 5.000000e+03 in 16 cells on zone 14524 in domain 1
  temperature limited to 1.000000e+00 on 2 faces

 absolute pressure limited to 5.000000e+10 in 120104 cells on zone 14524 

 turbulent viscosity limited to viscosity ratio of 1.000000e+05 in 108810 cells 
   493  1.5672e+09  1.4731e-02  4.5449e-02  2.7789e-02  4.7646e-02  9.9751e-01  4.9770e-01 -1.4096e+05  0:00:05    7
 temperature limited to 1.000000e+00 in 19430 cells on zone 14524 in domain 1
  temperature limited to 5.000000e+03 in 31 cells on zone 14524 in domain 1
  temperature limited to 1.000000e+00 on 5 faces

 absolute pressure limited to 5.000000e+10 in 120145 cells on zone 14524 

 turbulent viscosity limited to viscosity ratio of 1.000000e+05 in 108850 cells 
   494  1.6385e+09  1.4774e-02  4.5863e-02  2.7245e-02  4.5682e-02  9.9342e-01  4.9594e-01 -1.5286e+05  0:00:04    6
 temperature limited to 1.000000e+00 in 16696 cells on zone 14524 in domain 1
  temperature limited to 5.000000e+03 in 37 cells on zone 14524 in domain 1
 
 absolute pressure limited to 5.000000e+10 in 120087 cells on zone 14524 

 turbulent viscosity limited to viscosity ratio of 1.000000e+05 in 108949 cells 
   495  1.5180e+09  1.4539e-02  4.5155e-02  2.6480e-02  4.6842e-02  9.8101e-01  4.9129e-01 -1.7147e+05  0:00:04    5
 temperature limited to 1.000000e+00 in 20397 cells on zone 14524 in domain 1
  temperature limited to 5.000000e+03 in 44 cells on zone 14524 in domain 1
  temperature limited to 1.000000e+00 on 2 faces

 absolute pressure limited to 5.000000e+10 in 120106 cells on zone 14524 

 turbulent viscosity limited to viscosity ratio of 1.000000e+05 in 109241 cells 

  iter  continuity  x-velocity  y-velocity  z-velocity      energy           k       omega  report-def     time/iter
   496  1.4124e+09  1.4294e-02  4.3798e-02  2.5706e-02  4.8026e-02  9.9552e-01  4.9377e-01 -1.8374e+05  0:00:03    4
 temperature limited to 1.000000e+00 in 17255 cells on zone 14524 in domain 1
  temperature limited to 5.000000e+03 in 50 cells on zone 14524 in domain 1
  temperature limited to 1.000000e+00 on 2 faces
 temperature limited to 5.000000e+03 on 1 faces

 absolute pressure limited to 5.000000e+10 in 120126 cells on zone 14524 

 turbulent viscosity limited to viscosity ratio of 1.000000e+05 in 109229 cells 
   497  1.5322e+09  1.4426e-02  4.3010e-02  2.5769e-02  4.4563e-02  9.9875e-01  4.9829e-01 -1.9355e+05  0:00:02    3
 temperature limited to 1.000000e+00 in 20839 cells on zone 14524 in domain 1
  temperature limited to 5.000000e+03 in 41 cells on zone 14524 in domain 1
  temperature limited to 1.000000e+00 on 2 faces
 temperature limited to 5.000000e+03 on 6 faces

 absolute pressure limited to 5.000000e+10 in 120112 cells on zone 14524 

 turbulent viscosity limited to viscosity ratio of 1.000000e+05 in 109165 cells 
   498  1.5073e+09  1.4559e-02  4.3969e-02  2.8311e-02  4.3870e-02  9.9939e-01  4.9915e-01 -1.7337e+05  0:00:01    2
 temperature limited to 1.000000e+00 in 15651 cells on zone 14524 in domain 1
  temperature limited to 5.000000e+03 in 58 cells on zone 14524 in domain 1
  temperature limited to 1.000000e+00 on 1 faces
 temperature limited to 5.000000e+03 on 14 faces

 absolute pressure limited to 5.000000e+10 in 120114 cells on zone 14524 

 turbulent viscosity limited to viscosity ratio of 1.000000e+05 in 108948 cells 
   499  1.3702e+09  1.4232e-02  4.2522e-02  2.6052e-02  4.5637e-02  9.9700e-01  4.9830e-01 -1.4656e+05  0:00:01    1
 temperature limited to 1.000000e+00 in 16010 cells on zone 14524 in domain 1
  temperature limited to 5.000000e+03 in 42 cells on zone 14524 in domain 1
  temperature limited to 1.000000e+00 on 2 faces
 temperature limited to 5.000000e+03 on 13 faces

 absolute pressure limited to 5.000000e+10 in 120150 cells on zone 14524 

 turbulent viscosity limited to viscosity ratio of 1.000000e+05 in 109206 cells 
   500  1.4413e+09  1.4187e-02  4.1193e-02  2.7339e-02  4.5681e-02  9.9888e-01  4.9895e-01 -1.2585e+05  0:00:00    0

> Halting due to end of file on input.
Auto-Transcript Stop Time:  19:26:38, 06 Nov 2024 
Total Transcript Time: 6 Minute 46 Second.

Automatic transcript closed.
