/opt/crc/a/ansys/2024R1/v241/fluent/fluent24.1.0/bin/fluent -r24.1.0 3ddp -t4 -g
/opt/crc/a/ansys/2024R1/v241/fluent/fluent24.1.0/cortex/lnamd64/cortex.24.1.0 -f fluent -g (fluent "3ddp -pshmem  -host -r24.1.0 -t4 -mpi=intel -path/opt/crc/a/ansys/2024R1/v241/fluent -ssh")

Opening input/output transcript to file "/tmp/927507.1.long/worker-241760-2177876/task.85/fluent-20241106-192558-2282631.trn".
Auto-Transcript Start Time:  19:25:58, 06 Nov 2024 
/opt/crc/a/ansys/2024R1/v241/fluent/fluent24.1.0/bin/fluent -r24.1.0 3ddp -pshmem -host -t4 -mpi=intel -path/opt/crc/a/ansys/2024R1/v241/fluent -ssh -cx d32cepyc191.crc.nd.edu:45237:38699
Starting /opt/crc/a/ansys/2024R1/v241/fluent/fluent24.1.0/lnamd64/3ddp_host/fluent.24.1.0 host -cx d32cepyc191.crc.nd.edu:45237:38699 "(list (rpsetvar (QUOTE parallel/function) "fluent 3ddp -flux -node -r24.1.0 -t4 -pshmem -mpi=intel -ssh") (rpsetvar (QUOTE parallel/rhost) "") (rpsetvar (QUOTE parallel/ruser) "") (rpsetvar (QUOTE parallel/nprocs_string) "4") (rpsetvar (QUOTE parallel/auto-spawn?) #t) (rpsetvar (QUOTE parallel/trace-level) 0) (rpsetvar (QUOTE parallel/remote-shell) 1) (rpsetvar (QUOTE parallel/path) "/opt/crc/a/ansys/2024R1/v241/fluent") (rpsetvar (QUOTE parallel/hostsfile) "") (rpsetvar (QUOTE gpuapp/devices) ""))"

              Welcome to ANSYS Fluent 2024 R1

              Copyright 1987-2024 ANSYS, Inc. All Rights Reserved.
              Unauthorized use, distribution or duplication is prohibited.
              This product is subject to U.S. laws governing export and re-export.
              For full Legal Notice, see documentation.

Build Time: Nov 22 2023 10:07:25 EST  Build Id: 10184  
 
Connected License Server List:	7504@linux5-lic.crc.nd.edu

     --------------------------------------------------------------
     This is an academic version of ANSYS FLUENT. Usage of this product
     license is limited to the terms and conditions specified in your ANSYS
     license form, additional terms section.
     --------------------------------------------------------------
Host spawning Node 0 on machine "d32cepyc191.crc.nd.edu" (unix).
/opt/crc/a/ansys/2024R1/v241/fluent/fluent24.1.0/bin/fluent -r24.1.0 3ddp -flux -node -t4 -pshmem -mpi=intel -ssh -mport 10.32.91.149:10.32.91.149:34115:0
Starting /opt/crc/a/ansys/2024R1/v241/fluent/fluent24.1.0/multiport/mpi/lnamd64/intel2021/bin/mpirun --rsh=ssh -f /tmp/fluent-appfile.etracey.2283039 -genv I_MPI_FABRICS shm -genv FLUENT_ARCH lnamd64 -genv I_MPI_DEBUG 0 -genv I_MPI_ADJUST_GATHERV 3 -genv I_MPI_ADJUST_ALLREDUCE 2 -genv I_MPI_PLATFORM auto -genv PYTHONHOME /opt/crc/a/ansys/2024R1/v241/fluent/fluent24.1.0/../../commonfiles/CPython/3_10/linx64/Release/python -genv FLUENT_PROD_DIR /opt/crc/a/ansys/2024R1/v241/fluent/fluent24.1.0 -genv FLUENT_AFFINITY 0 -genv I_MPI_PIN enable -genv KMP_AFFINITY disabled -n 4 /opt/crc/a/ansys/2024R1/v241/fluent/fluent24.1.0/lnamd64/3ddp_node/fluent_mpi.24.1.0 node -mpiw intel -pic shmem -mport 10.32.91.149:10.32.91.149:34115:0

------------------------------------------------------------------------------------
ID    Hostname              Core  O.S.      PID              Vendor                
------------------------------------------------------------------------------------
n0-3  d32cepyc191.crc.nd.e  4/64  Linux-64  2283093-2283096  AMD EPYC 7543 32-Core 
host  d32cepyc191.crc.nd.e        Linux-64  2282835          AMD EPYC 7543 32-Core 

MPI Option Selected: intel
Selected system interconnect: shared-memory
------------------------------------------------------------------------------------


Initializing SGE
Done.
Cleanup script file is /tmp/927507.1.long/worker-241760-2177876/task.85/cleanup-fluent-d32cepyc191.crc.nd.edu-2282835.sh
Key Behavioral Changes:
Fluent Guided Meshing Workflows: 
Workflow template files (.wft) are now saved by default whenever the mesh is saved. You can change the automatic creation of .wft files in Preferences. 
Journaling: 
When Ansys Fluent encounters an invalid input in a journal file that is being replayed, it now raises an error condition and aborts the journal processing. 
Turbulence: 
The value of kappa used in the Spalart-Allmaras model for interior terms was inconsistent with the reference publications of the model. Fluent historically used a value of 0.4187, but to produce results consistent with the published model, the value should be 0.41. This issue was first addressed in a previous Fluent version and access to the kappa value was given in the GUI while keeping the old default of 0.4187. In Fluent 2024 R1, the default value is now changed to 0.41. 
Turbomachinery: 
For Blade Film Cooling, you can now specify stationary holes on the surfaces of a moving/rotating cell zone in transient cases. 
Boundaries previously referred to as "casings" in the Turbo Topology definition are now referred to as "shrouds." 
Density-Based Solver: 
The High Speed Numerics have been updated to increase the robustness of the Roe-FDS numerical flux against shock-instabilities and the carbuncle phenomenon. This modification may produce a slight solution change for cases combining Roe-FDS and HSN. 
Multiphase Models: 
Modeling of open channel flows in conjunction with the translation moving reference frame (MRF) has been improved resulting in more accurate and stable solution. In addition, a solution methodology has been suggested to provide better stability for high-speed hull simulations. 
Parallel Processing: 
Using dynamic process spawning now requires that you manually specify the interconnect as -pethernet for shared memory or distributed memory without InfiniBand, and -pib.ofed for distributed memory over InfiniBand. 
Refer to the Ansys, Inc. Release Notes for a full listing of the new features included in Ansys Fluent 2024 R1. 
 +------------------------------------------------------------------+
 |                    ANSYS Product Improvement                     |
 |                                                                  |
 |   ANSYS Product Improvement Program helps improve ANSYS          |
 |   products. Participating in this program is like filling out a  |
 |   survey. Without interrupting your work, the software reports   |
 |   anonymous usage information such as errors, machine and        |
 |   solver statistics, features used, etc. to ANSYS. We never      |
 |   use the data to identify or contact you.                       |
 |   The data does NOT contain:                                     |
 |   - Any personally identifiable information including names,     |
 |     IP addresses, file names, part names, etc.                   |
 |   - Any information about your geometry or design specific       |
 |     inputs.                                                      |
 |   You can stop participation at any time. To change your         |
 |   selection go to Help >> ANSYS Product Improvement Program      |
 |   in the GUI.                                                    |
 |   For more information about the ANSYS Privacy Policy, please    |
 |   check: http://www.ansys.com/privacy                            |
 |                                                                  |
 +------------------------------------------------------------------+

> Fast-loading "/opt/crc/a/ansys/2024R1/v241/fluent/fluent24.1.0/addons/afd/lib/hdfio.bin"
Done.
WARNING: Rank:0 Machine d32cepyc191.crc.nd.edu has 45 % of RAM filled with file buffer caches.
This can cause potential performance issues. Please use -cflush flag to flush the cache. 


Reading from d32cepyc191.crc.nd.edu:"/tmp/927507.1.long/worker-241760-2177876/task.85/case.cas.h5" in NODE0 mode ...
  Reading mesh ...
      120642 cells,     1 cell zone  ...
         120642 polyhedra cells,  zone id: 14524
      689887 faces,     7 face zones ...
           5762 polygonal symmetry faces,  zone id: 41
           5844 polygonal symmetry faces,  zone id: 42
            464 polygonal pressure-far-field faces,  zone id: 43
            458 polygonal pressure-far-field faces,  zone id: 44
           1892 polygonal pressure-far-field faces,  zone id: 45
          13363 polygonal wall faces,  zone id: 46
         662104 polygonal interior faces,  zone id: 14523
      501605 nodes,     1 node zone  ...
  Done.


Building...
     mesh
	auto partitioning mesh by Metis (fast),
	distributing mesh
		parts....,
		faces....,
		nodes....,
		cells....,
        bandwidth reduction using Reverse Cuthill-McKee: 30663/2131 = 14.389
  Reading boundary layer flags ...
  Done.

     materials,
     interface,
     domains,
	mixture
     zones,
	symmetry1
	symmetry2
	inlet
	outlet
	farfield
	launchvehicle
	interior--flowfield
	flowfield
     parallel,
Done.

> adjoint/                parallel/               server/
define/                 parametric-study/       solve/
display/                plot/                   surface/
exit                    preferences/            turbo-workflow/
file/                   print-license-usage     views/
mesh/                   report/

> 
> adjoint/                parallel/               server/
define/                 parametric-study/       solve/
display/                plot/                   surface/
exit                    preferences/            turbo-workflow/
file/                   print-license-usage     views/
mesh/                   report/

> 
> adjoint/                parallel/               server/
define/                 parametric-study/       solve/
display/                plot/                   surface/
exit                    preferences/            turbo-workflow/
file/                   print-license-usage     views/
mesh/                   report/

> air is a fluid

Density
no data required.


> adjoint/                parallel/               server/
define/                 parametric-study/       solve/
display/                plot/                   surface/
exit                    preferences/            turbo-workflow/
file/                   print-license-usage     views/
mesh/                   report/

> (farfield outlet inlet)

> (farfield outlet inlet)

> (farfield outlet inlet)

> adjoint/                parallel/               server/
define/                 parametric-study/       solve/
display/                plot/                   surface/
exit                    preferences/            turbo-workflow/
file/                   print-license-usage     views/
mesh/                   report/

> (launchvehicle)

> adjoint/                parallel/               server/
define/                 parametric-study/       solve/
display/                plot/                   surface/
exit                    preferences/            turbo-workflow/
file/                   print-license-usage     views/
mesh/                   report/

> 
> 
> 
> 
> 
> 
> adjoint/                parallel/               server/
define/                 parametric-study/       solve/
display/                plot/                   surface/
exit                    preferences/            turbo-workflow/
file/                   print-license-usage     views/
mesh/                   report/

> 
> 
> 
> adjoint/                parallel/               server/
define/                 parametric-study/       solve/
display/                plot/                   surface/
exit                    preferences/            turbo-workflow/
file/                   print-license-usage     views/
mesh/                   report/

> 
> 
> 
> adjoint/                parallel/               server/
define/                 parametric-study/       solve/
display/                plot/                   surface/
exit                    preferences/            turbo-workflow/
file/                   print-license-usage     views/
mesh/                   report/

> 
> adjoint/                parallel/               server/
define/                 parametric-study/       solve/
display/                plot/                   surface/
exit                    preferences/            turbo-workflow/
file/                   print-license-usage     views/
mesh/                   report/

> 
Initialize using the hybrid initialization method.

Checking case topology... 
-This case has multiple farfield bc 
-Case will be initialized with constant parameters

	iter		scalar-0

	1		1.000000e+00
	2		7.621374e-04
	3		1.051448e-04
	4		1.461451e-05
	5		3.040380e-06
	6		6.529628e-07
	7		1.450553e-07
	8		3.432387e-08
	9		9.720876e-09
	10		3.586881e-09

Hybrid initialization is done.

Note: Settings to improve the robustness of pathline and
      particle tracking have been automatically enabled.


> 
  iter  continuity  x-velocity  y-velocity  z-velocity      energy           k       omega  report-def     time/iter
     1  1.0000e+00  1.4693e-03  1.6056e-03  2.1423e-03  1.3851e-05  9.5739e-01  4.8822e-01  4.1205e+00  0:05:49  499
     2  1.0000e+00  2.6836e-03  4.5529e-03  2.1066e-03  7.0381e-05  9.1758e-01  4.7817e-01  5.9510e+00  0:05:56  498
     3  1.0000e+00  3.1371e-03  4.2587e-03  3.2611e-03  6.4378e-05  8.6008e-01  4.6859e-01  5.6101e+00  0:06:02  497
     4  1.0000e+00  3.9374e-03  8.0231e-03  2.2904e-03  1.3095e-04  8.7623e-01  4.3148e-01  5.3247e+00  0:06:05  496
     5  1.0000e+00  4.1154e-03  9.7930e-03  7.8248e-03  4.2806e-04  8.4013e-01  4.1985e-01  4.4014e+00  0:06:09  495
     6  1.2553e+00  1.0645e-02  2.0122e-02  5.7799e-03  2.6856e-04  9.3908e-01  3.7859e-01  4.1705e+00  0:06:11  494
     7  1.2301e+00  9.0290e-03  1.2382e-02  8.8488e-03  5.3547e-04  7.9419e-01  3.7552e-01  3.3891e+00  0:06:12  493
     8  1.6287e+00  1.4702e-02  2.9195e-02  8.2205e-03  5.8878e-04  8.0803e-01  3.6231e-01  3.5188e+00  0:06:12  492
     9  1.4696e+00  1.6332e-02  1.8553e-02  6.7455e-03  7.2567e-04  7.8408e-01  3.8810e-01  2.0891e+00  0:06:13  491
    10  1.8450e+00  1.6347e-02  3.9110e-02  9.3708e-03  8.0801e-04  8.2498e-01  4.0802e-01  2.2087e+00  0:06:13  490
    11  1.7528e+00  2.1481e-02  2.7041e-02  7.5896e-03  1.0674e-03  8.4409e-01  4.2712e-01  1.1901e+00  0:06:14  489

  iter  continuity  x-velocity  y-velocity  z-velocity      energy           k       omega  report-def     time/iter
    12  1.9157e+00  1.9647e-02  4.8317e-02  8.7460e-03  9.4034e-04  7.9846e-01  4.0725e-01  1.2862e+00  0:06:13  488
    13  1.9357e+00  2.6818e-02  3.8021e-02  8.1660e-03  1.2775e-03  8.7095e-01  4.4355e-01  4.8447e-01  0:06:13  487
    14  2.2188e+00  2.3543e-02  5.5846e-02  1.0591e-02  1.4567e-03  8.0971e-01  4.4063e-01  2.4664e-01  0:06:13  486
    15  2.3027e+00  3.7204e-02  5.1474e-02  1.0465e-02  1.6902e-03  8.9998e-01  4.6457e-01  5.4264e-01  0:06:14  485
    16  2.3698e+00  2.7558e-02  6.3942e-02  1.1287e-02  1.8944e-03  7.9205e-01  4.4328e-01 -6.3928e-01  0:06:15  484
    17  2.5256e+00  4.8759e-02  6.3545e-02  1.4873e-02  2.1559e-03  8.8862e-01  4.7480e-01 -2.0447e-01  0:06:15  483
    18  2.5722e+00  3.2803e-02  6.9231e-02  1.2432e-02  2.2285e-03  8.0810e-01  4.5900e-01 -1.3501e+00  0:06:14  482
    19  3.0585e+00  5.8587e-02  6.9035e-02  1.7221e-02  4.3660e-03  9.7330e-01  5.4464e-01 -6.3670e-01  0:06:13  481
    20  2.7803e+00  3.4545e-02  8.4188e-02  1.7414e-02  3.8679e-03  8.4142e-01  4.9257e-01 -1.9254e+00  0:06:12  480
    21  3.1588e+00  7.6008e-02  8.1818e-02  2.3645e-02  3.7618e-03  1.0503e+00  6.3044e-01 -1.8788e+00  0:06:14  479
    22  3.3566e+00  5.4014e-02  9.4371e-02  2.2560e-02  6.1997e-03  9.1703e-01  4.9240e-01 -1.7655e+00  0:06:13  478

  iter  continuity  x-velocity  y-velocity  z-velocity      energy           k       omega  report-def     time/iter
    23  3.6067e+00  8.2592e-02  6.9166e-02  2.3332e-02  4.4001e-03  9.2257e-01  5.1627e-01 -2.2714e+00  0:06:11  477
    24  3.3709e+00  6.2122e-02  9.2463e-02  2.4509e-02  5.3385e-03  1.1809e+00  7.0602e-01 -3.0617e+00  0:06:09  476
    25  3.6383e+00  8.6828e-02  8.0608e-02  2.7269e-02  6.1058e-03  9.5009e-01  4.9244e-01 -4.3348e+00  0:06:08  475
    26  3.7915e+00  6.1879e-02  9.6302e-02  2.3142e-02  5.0215e-03  9.8391e-01  5.2461e-01 -2.6783e+00  0:06:08  474
    27  3.9624e+00  7.9601e-02  8.6483e-02  2.5299e-02  8.7838e-03  9.9994e-01  5.4328e-01 -2.5940e+00  0:06:07  473
    28  3.7240e+00  5.7544e-02  8.7975e-02  2.3755e-02  6.6286e-03  9.7819e-01  5.2271e-01 -3.7422e+00  0:06:06  472
    29  4.1024e+00  8.3794e-02  8.6269e-02  2.5482e-02  6.4259e-03  1.0409e+00  5.5710e-01 -4.0194e+00  0:06:05  471
    30  4.1099e+00  7.2811e-02  8.8172e-02  2.4481e-02  7.1846e-03  9.4115e-01  4.8904e-01 -3.7584e+00  0:06:03  470
    31  4.4391e+00  9.0317e-02  8.3051e-02  2.5716e-02  1.1660e-02  9.3539e-01  5.1078e-01 -1.8306e+00  0:06:03  469
    32  4.1476e+00  8.4507e-02  6.6993e-02  2.4035e-02  1.0380e-02  1.0248e+00  5.5576e-01 -1.8333e+00  0:06:04  468
    33  4.4351e+00  9.4979e-02  8.6575e-02  2.4678e-02  7.1529e-03  1.0189e+00  5.3900e-01 -1.2659e+00  0:06:03  467

  iter  continuity  x-velocity  y-velocity  z-velocity      energy           k       omega  report-def     time/iter
    34  4.2695e+00  1.0088e-01  8.4554e-02  2.6681e-02  9.2759e-03  9.6480e-01  5.0295e-01 -9.8644e-01  0:06:03  466
    35  4.3756e+00  9.0701e-02  9.6459e-02  2.7391e-02  7.2766e-03  9.4075e-01  5.0730e-01 -2.4350e-01  0:06:02  465
    36  4.4096e+00  9.0938e-02  9.3427e-02  2.6179e-02  8.2291e-03  9.9286e-01  5.4216e-01  3.7325e-01  0:06:01  464
    37  4.3762e+00  8.4039e-02  9.8981e-02  2.6580e-02  9.7178e-03  9.7838e-01  5.2387e-01  2.7386e-01  0:06:00  463
    38  4.4970e+00  9.9771e-02  9.4907e-02  2.5004e-02  8.1428e-03  1.1271e+00  6.1064e-01  5.0296e-01  0:06:00  462
    39  4.6667e+00  9.2788e-02  1.0376e-01  2.8200e-02  8.4241e-03  9.4379e-01  4.9461e-01  9.8717e-01  0:06:00  461
    40  4.7551e+00  9.8689e-02  9.8326e-02  2.5932e-02  1.0087e-02  1.1773e+00  6.1980e-01  1.5980e+00  0:05:59  460
    41  4.5896e+00  9.9298e-02  9.3771e-02  2.7285e-02  1.0066e-02  1.0117e+00  5.3063e-01 -4.1245e-01  0:05:57  459
    42  5.1141e+00  1.0385e-01  9.2721e-02  2.8428e-02  1.0424e-02  9.9806e-01  5.0979e-01  8.8412e-01  0:05:56  458
    43  4.9913e+00  8.8469e-02  1.0598e-01  2.8439e-02  1.2077e-02  1.0466e+00  5.4286e-01  1.1921e+00  0:05:56  457
    44  5.4052e+00  1.0962e-01  9.4085e-02  2.8977e-02  1.2251e-02  9.8185e-01  5.1773e-01  6.4380e-01  0:05:55  456

  iter  continuity  x-velocity  y-velocity  z-velocity      energy           k       omega  report-def     time/iter
    45  5.0786e+00  9.7108e-02  9.6173e-02  2.7636e-02  1.2388e-02  9.9329e-01  5.1930e-01 -9.3250e-01  0:05:53  455
    46  5.8427e+00  1.3088e-01  1.0377e-01  3.3080e-02  1.0213e-02  1.0075e+00  5.3353e-01  4.6208e-01  0:05:52  454
    47  5.5486e+00  9.2072e-02  9.7894e-02  3.0694e-02  1.8429e-02  9.8219e-01  5.1524e-01  5.6402e-01  0:05:51  453
    48  6.0359e+00  1.2901e-01  1.0232e-01  3.1923e-02  1.2087e-02  1.1178e+00  5.9254e-01  8.2098e-01  0:05:50  452
    49  6.0539e+00  1.0977e-01  8.4982e-02  2.7413e-02  1.3358e-02  1.0428e+00  5.5064e-01 -5.4972e-01  0:05:49  451
    50  6.1115e+00  1.0818e-01  9.7329e-02  2.9189e-02  1.1908e-02  1.0863e+00  5.8325e-01  3.0998e-01  0:05:49  450
    51  6.4154e+00  9.5209e-02  8.9420e-02  2.7595e-02  1.3014e-02  1.0368e+00  5.4284e-01  1.5855e+00  0:05:48  449
    52  6.9380e+00  1.1633e-01  1.0829e-01  3.1942e-02  1.2759e-02  9.8842e-01  5.1356e-01  2.0008e-01  0:05:47  448
    53  6.7755e+00  1.0401e-01  8.9812e-02  2.8491e-02  1.1700e-02  1.0138e+00  5.2659e-01  5.6548e-01  0:05:47  447
    54  7.0314e+00  1.0867e-01  1.1588e-01  3.2337e-02  1.2951e-02  9.8053e-01  5.0359e-01  2.3542e-01  0:05:46  446
    55  7.2490e+00  1.0252e-01  1.0827e-01  3.2507e-02  1.9493e-02  1.0458e+00  5.4008e-01  5.9424e-01  0:05:46  445

  iter  continuity  x-velocity  y-velocity  z-velocity      energy           k       omega  report-def     time/iter
    56  7.6551e+00  1.1836e-01  1.0150e-01  2.8826e-02  1.4823e-02  1.0695e+00  5.4815e-01  1.3768e+00  0:05:44  444
    57  7.1844e+00  1.0607e-01  9.2310e-02  2.9733e-02  1.3225e-02  1.0135e+00  5.2524e-01  1.8752e+00  0:05:42  443
    58  7.8352e+00  1.2244e-01  1.0663e-01  3.2042e-02  1.3901e-02  1.0332e+00  5.4728e-01  5.5624e-01  0:05:41  442
    59  7.8976e+00  9.5952e-02  1.0645e-01  3.0478e-02  1.3616e-02  1.0120e+00  5.2982e-01 -5.3326e-01  0:05:40  441
    60  8.1359e+00  1.1513e-01  1.1002e-01  3.1185e-02  1.6903e-02  1.1152e+00  5.8944e-01  5.2303e-01  0:05:40  440
    61  7.6956e+00  9.7203e-02  8.7835e-02  2.7547e-02  1.4603e-02  9.8451e-01  5.0668e-01  6.8360e-02  0:05:39  439
    62  8.9209e+00  1.1037e-01  1.1629e-01  3.2024e-02  1.7024e-02  1.2132e+00  6.1975e-01  7.3979e-01  0:05:38  438
    63  8.4120e+00  9.1936e-02  9.7360e-02  2.9709e-02  1.4782e-02  1.0003e+00  5.1529e-01  3.4884e-01  0:05:37  437
    64  9.2028e+00  1.0658e-01  1.0739e-01  3.1372e-02  1.7463e-02  1.0247e+00  5.2462e-01 -9.2597e-01  0:05:37  436
    65  8.7661e+00  1.0120e-01  9.8516e-02  3.0548e-02  2.2011e-02  9.9162e-01  5.1565e-01  4.5885e-01  0:05:36  435
    66  9.4166e+00  1.1651e-01  9.9414e-02  3.3634e-02  1.5203e-02  1.0944e+00  5.6419e-01  7.5253e-01  0:05:35  434

  iter  continuity  x-velocity  y-velocity  z-velocity      energy           k       omega  report-def     time/iter
    67  9.4041e+00  9.2878e-02  1.0398e-01  3.0545e-02  1.5269e-02  9.9999e-01  5.2176e-01  9.3485e-01  0:05:34  433
    68  9.6072e+00  1.0542e-01  9.7664e-02  2.9214e-02  1.5465e-02  1.0447e+00  5.5250e-01 -2.0170e+00  0:05:34  432
    69  9.3068e+00  9.3520e-02  9.8589e-02  3.1052e-02  1.4159e-02  1.0482e+00  5.5273e-01 -3.8839e+00  0:05:34  431
    70  1.0194e+01  1.0536e-01  1.0430e-01  3.2394e-02  1.6926e-02  1.0225e+00  5.3429e-01 -1.7933e-01  0:05:34  430
    71  9.8875e+00  8.6242e-02  9.1929e-02  2.8673e-02  1.5236e-02  9.8836e-01  5.0910e-01  1.1106e+00  0:05:34  429
    72  1.0482e+01  1.1329e-01  1.0589e-01  3.2411e-02  1.7691e-02  1.1661e+00  5.9342e-01  1.8898e+00  0:05:34  428
    73  9.9952e+00  9.5458e-02  9.1823e-02  3.0558e-02  1.6585e-02  9.9220e-01  5.0999e-01  5.1263e-01  0:05:33  427
    74  1.1376e+01  1.1236e-01  1.0295e-01  3.4325e-02  1.5865e-02  1.1145e+00  5.6930e-01  1.9615e+00  0:05:32  426
    75  1.1378e+01  8.6583e-02  9.9747e-02  3.1327e-02  2.3504e-02  1.0094e+00  5.2837e-01  2.7556e+00  0:05:31  425
    76  1.1062e+01  9.3575e-02  7.0867e-02  2.4775e-02  1.6766e-02  1.0274e+00  5.1986e-01 -2.3888e+00  0:05:32  424
    77  1.1070e+01  8.9033e-02  8.7073e-02  2.9290e-02  1.6206e-02  1.0824e+00  5.6326e-01 -9.6276e-01  0:05:31  423

  iter  continuity  x-velocity  y-velocity  z-velocity      energy           k       omega  report-def     time/iter
    78  1.2686e+01  9.9284e-02  1.0264e-01  3.3395e-02  2.0249e-02  1.0337e+00  5.3483e-01  1.5448e+00  0:05:29  422
    79  1.1861e+01  8.1969e-02  8.7528e-02  3.0271e-02  1.6177e-02  9.8926e-01  5.0751e-01  1.3038e+00  0:05:28  421
    80  1.3464e+01  1.0292e-01  1.0506e-01  3.2716e-02  2.0335e-02  1.1500e+00  5.8219e-01  2.1308e+00  0:05:26  420
    81  1.1961e+01  8.6741e-02  7.9935e-02  2.9633e-02  2.3534e-02  1.0111e+00  5.2162e-01  2.3432e+00  0:05:25  419
    82  1.4530e+01  1.0356e-01  9.6880e-02  3.3534e-02  2.1589e-02  1.0635e+00  5.4659e-01  3.6119e+00  0:05:24  418
    83  1.3218e+01  8.2887e-02  9.1797e-02  3.0197e-02  2.4338e-02  9.9682e-01  5.1290e-01  1.0306e+00  0:05:23  417
    84  1.4665e+01  1.0835e-01  9.1227e-02  3.1924e-02  2.9569e-02  1.0486e+00  5.3899e-01 -9.1510e-01  0:05:23  416
    85  1.3358e+01  9.1566e-02  8.1393e-02  2.9467e-02  2.3162e-02  1.0375e+00  5.3315e-01  1.8249e-01  0:05:22  415
    86  1.5592e+01  9.7351e-02  1.0066e-01  3.3706e-02  2.1340e-02  1.0350e+00  5.2633e-01  1.0897e-01  0:05:21  414
    87  1.4548e+01  8.3599e-02  8.9345e-02  3.0060e-02  2.0061e-02  1.0011e+00  5.2113e-01 -3.5430e-01  0:05:21  413
    88  1.5161e+01  1.0652e-01  9.8368e-02  3.4274e-02  2.3126e-02  1.0716e+00  5.4566e-01  9.4151e-01  0:05:20  412

  iter  continuity  x-velocity  y-velocity  z-velocity      energy           k       omega  report-def     time/iter
    89  1.4443e+01  8.8271e-02  8.7718e-02  2.9347e-02  1.7962e-02  1.0279e+00  5.2276e-01  1.5827e+00  0:05:19  411
    90  1.6740e+01  1.0298e-01  1.0412e-01  3.5509e-02  2.2669e-02  1.0422e+00  5.3225e-01  2.7597e+00  0:05:17  410
    91  1.5662e+01  9.7485e-02  8.7983e-02  3.4547e-02  2.3067e-02  1.0090e+00  5.1674e-01  2.4868e+00  0:05:17  409
    92  1.5940e+01  1.0280e-01  8.7113e-02  3.2774e-02  2.2200e-02  1.1358e+00  5.7009e-01  1.3376e+00  0:05:15  408
    93  1.6397e+01  8.3492e-02  8.8600e-02  3.0615e-02  2.0051e-02  1.0303e+00  5.2654e-01  1.9078e+00  0:05:15  407
    94  1.7864e+01  9.5011e-02  9.4405e-02  3.2362e-02  2.9223e-02  1.0156e+00  5.2066e-01  2.2850e+00  0:05:14  406
    95  1.6717e+01  8.8625e-02  8.0612e-02  3.0686e-02  2.4536e-02  1.0383e+00  5.3395e-01  4.4142e-01  0:05:14  405
    96  1.8708e+01  9.5809e-02  9.2649e-02  3.3201e-02  2.2982e-02  1.0835e+00  5.5630e-01  3.9264e+00  0:05:13  404
    97  1.7961e+01  8.3046e-02  8.9300e-02  3.0187e-02  2.9622e-02  1.0035e+00  5.1023e-01  7.3974e+00  0:05:12  403
    98  1.8885e+01  1.0212e-01  9.5529e-02  3.2415e-02  3.1375e-02  1.0445e+00  5.2971e-01  8.3289e+00  0:05:10  402
    99  1.8734e+01  9.2483e-02  9.8449e-02  3.2316e-02  3.0148e-02  1.0251e+00  5.2612e-01  7.3107e+00  0:05:10  401

  iter  continuity  x-velocity  y-velocity  z-velocity      energy           k       omega  report-def     time/iter
   100  1.9975e+01  1.0505e-01  8.9731e-02  3.1980e-02  2.4493e-02  1.0554e+00  5.3660e-01  6.7171e+00  0:05:10  400
   101  1.9173e+01  8.5740e-02  8.8961e-02  2.9810e-02  3.0537e-02  1.0396e+00  5.3234e-01  1.0751e+01  0:05:09  399
   102  2.1470e+01  9.7424e-02  9.9960e-02  3.4973e-02  2.5660e-02  1.0347e+00  5.3035e-01  8.0423e+00  0:05:08  398
   103  2.0390e+01  8.9415e-02  8.2115e-02  2.9705e-02  2.3577e-02  1.0328e+00  5.3033e-01  7.2787e+00  0:05:07  397
   104  2.1944e+01  8.6340e-02  1.0019e-01  3.3269e-02  4.9732e-02  1.0288e+00  5.2115e-01  1.0432e+01  0:05:08  396
   105  2.1084e+01  8.9954e-02  9.1305e-02  3.2979e-02  3.1700e-02  1.1022e+00  5.6291e-01  8.5016e+00  0:05:06  395
   106  2.3810e+01  9.8882e-02  9.3628e-02  3.5278e-02  3.0526e-02  1.0238e+00  5.2632e-01  1.4100e+01  0:05:05  394
   107  2.3279e+01  9.0717e-02  7.4033e-02  2.8612e-02  3.0306e-02  1.0050e+00  5.1193e-01  9.5482e+00  0:05:04  393
   108  2.3891e+01  8.6735e-02  8.0187e-02  3.0817e-02  2.4483e-02  1.0849e+00  5.4811e-01  8.5399e+00  0:05:03  392
   109  2.2977e+01  8.4317e-02  9.7598e-02  3.3536e-02  2.9602e-02  1.0451e+00  5.3113e-01  6.2610e+00  0:05:02  391
   110  2.4228e+01  9.2135e-02  8.1510e-02  3.1850e-02  2.6135e-02  1.0361e+00  5.2446e-01  1.3856e+01  0:05:01  390

  iter  continuity  x-velocity  y-velocity  z-velocity      energy           k       omega  report-def     time/iter
   111  2.4785e+01  8.5881e-02  9.4337e-02  3.2460e-02  2.2790e-02  1.0719e+00  5.4444e-01  1.1336e+01  0:05:00  389
   112  2.6522e+01  8.8880e-02  9.0942e-02  3.1594e-02  3.2160e-02  1.0329e+00  5.2524e-01  1.2147e+01  0:05:00  388
   113  2.5116e+01  7.7805e-02  9.6339e-02  3.0216e-02  2.5898e-02  1.0680e+00  5.4285e-01  6.6618e+00  0:04:59  387
   114  2.8486e+01  8.8472e-02  9.0119e-02  3.4045e-02  3.6752e-02  1.0550e+00  5.4401e-01  1.5372e+01  0:04:58  386
   115  2.8313e+01  8.9065e-02  8.9775e-02  3.0426e-02  2.7973e-02  1.0239e+00  5.2643e-01  2.1826e+01  0:04:57  385
   116  2.8395e+01  8.1282e-02  9.0384e-02  3.1473e-02  2.3873e-02  1.0570e+00  5.4247e-01  1.6329e+01  0:04:56  384
   117  2.8574e+01  9.4745e-02  9.2846e-02  3.3357e-02  3.6796e-02  1.0429e+00  5.3465e-01 -1.8444e+00  0:04:55  383
   118  3.0486e+01  8.4390e-02  7.5043e-02  2.8422e-02  3.4179e-02  1.0262e+00  5.2119e-01  2.8309e+00  0:04:55  382
   119  3.0874e+01  8.2812e-02  9.2301e-02  3.2103e-02  3.0178e-02  1.0526e+00  5.3624e-01  5.5614e+00  0:04:54  381
   120  3.1769e+01  9.0789e-02  8.8440e-02  3.0899e-02  3.8708e-02  1.0336e+00  5.2971e-01  2.0465e+01  0:04:50  380
   121  3.1203e+01  7.5382e-02  8.7094e-02  2.9622e-02  3.1548e-02  1.0657e+00  5.5004e-01  4.9814e+00  0:04:50  379

  iter  continuity  x-velocity  y-velocity  z-velocity      energy           k       omega  report-def     time/iter
   122  3.3599e+01  9.3800e-02  8.2181e-02  3.2720e-02  3.1343e-02  1.0556e+00  5.4257e-01  1.4232e+00  0:04:50  378
   123  3.3972e+01  8.7883e-02  8.2849e-02  3.0465e-02  2.9470e-02  1.0122e+00  5.1632e-01  6.7747e+00  0:04:50  377
   124  3.2378e+01  8.2685e-02  8.7472e-02  3.0646e-02  3.8080e-02  1.0228e+00  5.1960e-01  1.6324e+01  0:04:49  376
   125  3.3458e+01  1.0280e-01  9.4198e-02  3.5250e-02  3.4809e-02  1.1119e+00  5.5928e-01  2.7375e+00  0:04:48  375
   126  3.4832e+01  9.3783e-02  8.9203e-02  3.4924e-02  2.9468e-02  1.0210e+00  5.1819e-01  8.6062e-01  0:04:49  374
   127  3.7383e+01  9.0038e-02  9.8916e-02  3.4052e-02  2.8532e-02  1.0209e+00  5.1858e-01  4.5581e+00  0:04:48  373
   128  3.5922e+01  9.1872e-02  9.5160e-02  3.3285e-02  3.5900e-02  1.0456e+00  5.3087e-01  2.4039e+01  0:04:47  372
   129  3.7838e+01  9.1342e-02  9.7142e-02  3.4181e-02  4.4494e-02  1.0371e+00  5.2312e-01  8.7639e+00  0:04:47  371
   130  3.8105e+01  9.3410e-02  8.8466e-02  3.1823e-02  3.2925e-02  1.0547e+00  5.3363e-01 -3.0862e-01  0:04:46  370
   131  4.1692e+01  9.5365e-02  9.7344e-02  3.5694e-02  4.6130e-02  1.0572e+00  5.4319e-01  1.4043e+01  0:04:46  369
   132  3.9209e+01  8.5379e-02  9.2960e-02  3.1667e-02  2.9333e-02  1.0046e+00  5.0955e-01  2.0145e+01  0:04:38  368

  iter  continuity  x-velocity  y-velocity  z-velocity      energy           k       omega  report-def     time/iter
   133  4.2197e+01  1.0992e-01  9.5202e-02  3.5743e-02  2.9684e-02  1.0473e+00  5.2995e-01 -5.9594e+00  0:04:38  367
   134  3.8753e+01  8.4517e-02  9.5161e-02  3.4335e-02  3.7216e-02  1.0523e+00  5.3471e-01 -2.5393e+01  0:04:38  366
   135  4.4883e+01  8.5476e-02  1.0983e-01  3.6990e-02  3.1424e-02  1.0307e+00  5.2038e-01 -2.0724e+01  0:04:39  365
   136  4.1857e+01  6.7490e-02  8.9886e-02  2.9325e-02  2.9079e-02  1.0471e+00  5.3158e-01 -2.7183e+00  0:04:39  364
   137  4.5959e+01  8.8547e-02  8.4887e-02  3.1650e-02  3.7874e-02  1.1017e+00  5.6503e-01 -1.6773e+01  0:04:39  363
   138  4.1212e+01  7.9727e-02  7.3644e-02  3.0193e-02  2.9519e-02  1.0238e+00  5.1798e-01 -5.3029e+01  0:04:39  362
   139  4.6261e+01  8.9902e-02  8.2481e-02  3.3908e-02  4.2614e-02  1.0420e+00  5.2620e-01 -5.9163e+01  0:04:32  361
   140  4.6459e+01  9.3210e-02  8.7334e-02  3.2625e-02  3.4509e-02  1.0209e+00  5.1582e-01 -1.9370e+01  0:04:33  360
   141  4.7482e+01  9.2767e-02  7.4686e-02  3.0902e-02  4.2844e-02  1.0668e+00  5.3702e-01 -2.9758e+01  0:04:28  359
   142  4.5573e+01  9.0553e-02  1.0450e-01  3.5442e-02  3.9619e-02  1.0696e+00  5.4806e-01 -5.0679e+01  0:04:34  358
   143  4.9305e+01  9.9790e-02  8.7918e-02  3.4210e-02  3.4237e-02  1.0403e+00  5.2507e-01 -2.9091e+01  0:04:25  357

  iter  continuity  x-velocity  y-velocity  z-velocity      energy           k       omega  report-def     time/iter
   144  4.6931e+01  7.4414e-02  8.7490e-02  2.9651e-02  3.6352e-02  1.0252e+00  5.1788e-01 -1.1463e+01  0:04:21  356
   145  5.5490e+01  1.0406e-01  9.9582e-02  3.7606e-02  5.5321e-02  1.1031e+00  5.5777e-01 -1.2839e+01  0:04:23  355
   146  4.8729e+01  8.2629e-02  8.6145e-02  3.3563e-02  3.4174e-02  1.0111e+00  5.1031e-01 -2.7350e+01  0:04:18  354
   147  5.2373e+01  9.2667e-02  9.6631e-02  3.5389e-02  2.9461e-02  1.0675e+00  5.3544e-01 -7.4706e+00  0:04:14  353
   148  5.1869e+01  8.1986e-02  9.5748e-02  3.3273e-02  2.7401e-02  1.0229e+00  5.1778e-01 -5.5293e+00  0:04:36  352
   149  5.4248e+01  9.1800e-02  9.7155e-02  3.6468e-02  2.4178e-02  1.0628e+00  5.3620e-01 -9.8381e+00  0:04:35  351
   150  5.1053e+01  8.4986e-02  8.4563e-02  3.3174e-02  2.8423e-02  1.0359e+00  5.2110e-01 -3.6923e+01  0:04:34  350
   151  5.3825e+01  8.2250e-02  8.0317e-02  3.0115e-02  3.6419e-02  1.0671e+00  5.4083e-01 -9.0749e+00  0:04:26  349
   152  5.8612e+01  7.4268e-02  8.6759e-02  3.1083e-02  4.8635e-02  1.0241e+00  5.1718e-01 -3.7477e+00  0:04:26  348
   153  5.9141e+01  9.0934e-02  6.8344e-02  2.8857e-02  2.9190e-02  1.0573e+00  5.3476e-01 -9.0585e+00  0:04:26  347
   154  5.7653e+01  7.8846e-02  7.0863e-02  3.2454e-02  3.6380e-02  1.0433e+00  5.2768e-01 -2.9306e+01  0:04:20  346

  iter  continuity  x-velocity  y-velocity  z-velocity      energy           k       omega  report-def     time/iter
   155  6.6092e+01  8.6323e-02  8.5201e-02  3.2020e-02  3.5571e-02  1.0432e+00  5.2859e-01 -2.1513e+01  0:04:21  345
   156  6.5386e+01  6.5761e-02  8.3916e-02  3.0477e-02  3.7659e-02  1.0239e+00  5.1862e-01 -3.1425e+01  0:04:15  344
   157  7.2614e+01  9.0008e-02  8.6348e-02  3.2919e-02  3.2343e-02  1.0565e+00  5.3437e-01 -4.6553e+01  0:04:17  343
   158  6.4699e+01  7.9135e-02  6.9630e-02  3.2003e-02  2.9612e-02  1.0489e+00  5.3158e-01 -6.8616e+01  0:04:11  342
   159  7.4510e+01  8.5249e-02  8.2439e-02  3.3498e-02  4.8219e-02  1.0421e+00  5.2501e-01 -9.6394e+01  0:04:07  341
   160  7.5523e+01  7.0433e-02  8.0747e-02  2.9747e-02  3.2531e-02  1.0303e+00  5.2157e-01 -9.7763e+01  0:04:09  340
   161  8.0851e+01  7.5902e-02  6.7730e-02  2.9442e-02  3.2509e-02  1.0290e+00  5.2024e-01 -1.0986e+02  0:04:05  339
   162  7.9917e+01  7.4875e-02  6.2982e-02  2.9205e-02  3.7900e-02  1.0751e+00  5.4031e-01 -2.4644e+02  0:04:08  338
   163  7.8238e+01  6.4808e-02  6.3046e-02  2.5717e-02  2.9596e-02  1.0441e+00  5.2948e-01 -2.8347e+02  0:04:04  337
   164  8.9942e+01  6.0453e-02  7.5921e-02  2.8308e-02  3.4940e-02  1.0275e+00  5.2067e-01 -2.9940e+02  0:04:00  336
   165  9.2444e+01  6.7970e-02  6.0664e-02  2.7739e-02  3.4680e-02  1.0427e+00  5.2479e-01 -3.2234e+02  0:03:57  335

  iter  continuity  x-velocity  y-velocity  z-velocity      energy           k       omega  report-def     time/iter
   166  8.9376e+01  7.4310e-02  5.5922e-02  2.9321e-02  3.6259e-02  1.0474e+00  5.2958e-01 -3.3916e+02  0:03:55  334
   167  9.5714e+01  6.7304e-02  7.3763e-02  3.1485e-02  2.9096e-02  1.0316e+00  5.2056e-01 -2.8352e+02  0:03:53  333
   168  9.7740e+01  5.8189e-02  7.5097e-02  2.9002e-02  3.6080e-02  1.0407e+00  5.2531e-01 -2.6074e+02  0:03:51  332
   169  1.0619e+02  7.4665e-02  6.1841e-02  3.3060e-02  3.3981e-02  1.0318e+00  5.2343e-01 -2.0249e+02  0:03:50  331
   170  1.0988e+02  7.5675e-02  6.2048e-02  3.2813e-02  3.2788e-02  1.0330e+00  5.1902e-01 -1.4800e+02  0:03:49  330
   171  1.1933e+02  5.7149e-02  7.2683e-02  3.4058e-02  3.2164e-02  1.0487e+00  5.3320e-01 -4.7447e+01  0:03:48  329
   172  1.2643e+02  4.5373e-02  7.1012e-02  2.9513e-02  4.4979e-02  1.0664e+00  5.4823e-01  1.5944e+01  0:03:47  328
   173  1.4007e+02  6.0732e-02  5.0911e-02  2.9172e-02  3.0243e-02  1.0218e+00  5.2586e-01  7.1645e+01  0:03:52  327
   174  1.5012e+02  4.9244e-02  3.9481e-02  2.8506e-02  2.8346e-02  1.0038e+00  5.0919e-01  1.7822e+02  0:03:49  326
   175  1.6648e+02  3.5319e-02  4.5255e-02  2.5469e-02  2.8842e-02  9.8564e-01  4.9895e-01  3.9118e+02  0:03:48  325
   176  1.7619e+02  2.6061e-02  3.7618e-02  2.0958e-02  2.3729e-02  9.5679e-01  4.8753e-01  6.3282e+02  0:03:46  324

  iter  continuity  x-velocity  y-velocity  z-velocity      energy           k       omega  report-def     time/iter
   177  2.0256e+02  2.7142e-02  2.7863e-02  1.9966e-02  2.6582e-02  9.0335e-01  4.4919e-01  7.7969e+02  0:03:45  323
   178  2.3969e+02  2.6884e-02  2.6882e-02  2.0021e-02  2.1385e-02  8.4650e-01  4.1282e-01  8.0179e+02  0:03:43  322
   179  2.8643e+02  2.4030e-02  2.6062e-02  2.0984e-02  1.8901e-02  7.7226e-01  3.9065e-01  7.5334e+02  0:03:42  321
   180  3.5486e+02  2.3772e-02  2.4324e-02  2.2342e-02  1.9088e-02  7.5500e-01  3.9010e-01  4.1407e+02  0:03:41  320
   181  4.5624e+02  2.4931e-02  2.5313e-02  2.4664e-02  1.9781e-02  7.1132e-01  3.8863e-01 -4.6701e+00  0:03:40  319
   182  5.8802e+02  2.5179e-02  2.6617e-02  2.5836e-02  1.8805e-02  7.4689e-01  3.9861e-01 -6.2422e+02  0:03:39  318
   183  7.7337e+02  2.5168e-02  2.2526e-02  2.5268e-02  1.6527e-02  6.8785e-01  3.8150e-01 -1.3643e+03  0:03:39  317
   184  1.0480e+03  2.0996e-02  2.0359e-02  2.3134e-02  1.5419e-02  6.8975e-01  3.8225e-01 -2.3304e+03  0:03:38  316
   185  1.4502e+03  1.8453e-02  1.7793e-02  2.0594e-02  1.3292e-02  7.2564e-01  3.8101e-01 -4.4955e+03  0:03:37  315
   186  2.0366e+03  1.6682e-02  1.5267e-02  1.8154e-02  1.1437e-02  7.1772e-01  3.7735e-01 -8.6532e+03  0:03:36  314
   187  2.8695e+03  1.5665e-02  1.3697e-02  1.7224e-02  1.1101e-02  6.8960e-01  3.6736e-01 -1.4223e+04  0:03:35  313

  iter  continuity  x-velocity  y-velocity  z-velocity      energy           k       omega  report-def     time/iter
   188  4.0334e+03  1.5009e-02  1.3612e-02  1.7914e-02  1.0641e-02  6.9905e-01  3.6209e-01 -2.1386e+04  0:03:35  312
   189  5.6361e+03  1.2461e-02  1.1587e-02  1.7065e-02  1.2250e-02  6.2877e-01  3.5436e-01 -3.0867e+04  0:03:33  311

 turbulent viscosity limited to viscosity ratio of 1.000000e+05 in 586 cells 
   190  7.3477e+03  1.3892e-02  1.2737e-02  2.1217e-02  1.1751e-02  6.5496e-01  3.1685e-01 -3.8315e+04  0:03:33  310

 turbulent viscosity limited to viscosity ratio of 1.000000e+05 in 4693 cells 
   191  1.0057e+04  1.3277e-02  1.1821e-02  2.3093e-02  1.3458e-02  5.8514e-01  3.3499e-01 -4.7094e+04  0:03:33  309

 turbulent viscosity limited to viscosity ratio of 1.000000e+05 in 11391 cells 
   192  1.3528e+04  1.2474e-02  1.0984e-02  2.4625e-02  1.3954e-02  7.4681e-01  4.0969e-01 -5.6105e+04  0:03:33  308

 turbulent viscosity limited to viscosity ratio of 1.000000e+05 in 20905 cells 
   193  1.7594e+04  1.2150e-02  1.0762e-02  2.3165e-02  1.2607e-02  8.1019e-01  3.8571e-01 -6.5024e+04  0:03:32  307

 turbulent viscosity limited to viscosity ratio of 1.000000e+05 in 30175 cells 
   194  2.1547e+04  1.1475e-02  1.0207e-02  2.0846e-02  1.2656e-02  7.6636e-01  4.0185e-01 -7.4859e+04  0:03:31  306

 turbulent viscosity limited to viscosity ratio of 1.000000e+05 in 40786 cells 
   195  2.5899e+04  1.1751e-02  1.0510e-02  1.8237e-02  1.2061e-02  8.7748e-01  4.3955e-01 -8.9236e+04  0:03:31  305

 turbulent viscosity limited to viscosity ratio of 1.000000e+05 in 50953 cells 
   196  2.9658e+04  1.1986e-02  1.0466e-02  1.6745e-02  1.3100e-02  9.3529e-01  4.7011e-01 -1.0877e+05  0:03:30  304

 turbulent viscosity limited to viscosity ratio of 1.000000e+05 in 57139 cells 
   197  3.3047e+04  1.2507e-02  1.0780e-02  1.6032e-02  1.4125e-02  9.2508e-01  4.6374e-01 -1.3424e+05  0:03:29  303

 turbulent viscosity limited to viscosity ratio of 1.000000e+05 in 60408 cells 
   198  3.6944e+04  1.2638e-02  1.1491e-02  1.6318e-02  1.4997e-02  9.2752e-01  4.5899e-01 -1.6642e+05  0:03:29  302

 turbulent viscosity limited to viscosity ratio of 1.000000e+05 in 62984 cells 

  iter  continuity  x-velocity  y-velocity  z-velocity      energy           k       omega  report-def     time/iter
   199  3.9003e+04  1.2819e-02  1.1299e-02  1.7460e-02  1.7065e-02  9.6196e-01  4.6784e-01 -1.9867e+05  0:03:29  301

 turbulent viscosity limited to viscosity ratio of 1.000000e+05 in 66136 cells 
   200  4.1025e+04  1.3994e-02  1.2798e-02  1.9986e-02  1.8282e-02  9.6165e-01  4.5717e-01 -2.2549e+05  0:03:28  300

 turbulent viscosity limited to viscosity ratio of 1.000000e+05 in 68720 cells 
   201  4.4147e+04  1.4833e-02  1.3443e-02  2.3381e-02  2.0479e-02  9.7924e-01  4.5210e-01 -2.4945e+05  0:03:27  299

 turbulent viscosity limited to viscosity ratio of 1.000000e+05 in 70376 cells 
   202  4.6445e+04  1.6509e-02  1.5079e-02  2.7574e-02  2.2580e-02  1.0149e+00  4.6113e-01 -2.6243e+05  0:03:26  298

 turbulent viscosity limited to viscosity ratio of 1.000000e+05 in 71363 cells 
   203  5.0451e+04  1.7999e-02  1.6530e-02  3.1979e-02  2.6347e-02  1.0179e+00  4.7035e-01 -2.7041e+05  0:03:25  297

 turbulent viscosity limited to viscosity ratio of 1.000000e+05 in 71590 cells 
   204  5.3100e+04  1.9237e-02  1.8375e-02  3.5602e-02  2.6120e-02  1.0264e+00  4.7592e-01 -2.6919e+05  0:03:24  296

 turbulent viscosity limited to viscosity ratio of 1.000000e+05 in 71848 cells 
   205  5.6206e+04  2.2119e-02  2.1016e-02  3.9004e-02  2.8099e-02  9.9615e-01  4.6453e-01 -2.6596e+05  0:03:23  295

 turbulent viscosity limited to viscosity ratio of 1.000000e+05 in 70728 cells 
   206  6.2144e+04  2.7914e-02  2.7335e-02  4.3206e-02  3.5516e-02  1.0049e+00  4.7993e-01 -2.2596e+05  0:03:22  294

 turbulent viscosity limited to viscosity ratio of 1.000000e+05 in 68634 cells 
   207  6.9386e+04  3.1875e-02  3.0468e-02  4.4901e-02  3.8213e-02  1.0067e+00  5.0172e-01 -1.7338e+05  0:03:22  293

 turbulent viscosity limited to viscosity ratio of 1.000000e+05 in 64720 cells 
   208  7.2800e+04  3.5059e-02  3.1167e-02  4.3355e-02  3.8462e-02  9.9911e-01  4.9026e-01 -1.1628e+05  0:03:21  292

 turbulent viscosity limited to viscosity ratio of 1.000000e+05 in 61100 cells 
   209  7.8773e+04  3.6709e-02  3.3387e-02  4.4856e-02  3.6423e-02  9.9866e-01  4.8966e-01 -6.9219e+04  0:03:20  291

 turbulent viscosity limited to viscosity ratio of 1.000000e+05 in 60832 cells 

  iter  continuity  x-velocity  y-velocity  z-velocity      energy           k       omega  report-def     time/iter
   210  8.3235e+04  3.8812e-02  3.5264e-02  4.1809e-02  3.8621e-02  9.9608e-01  4.8615e-01 -5.6726e+03  0:03:20  290

 turbulent viscosity limited to viscosity ratio of 1.000000e+05 in 66015 cells 
   211  9.1563e+04  3.7185e-02  3.6800e-02  4.3649e-02  4.0442e-02  1.0008e+00  4.9737e-01  4.4148e+04  0:03:19  289

 turbulent viscosity limited to viscosity ratio of 1.000000e+05 in 72150 cells 
   212  1.0985e+05  3.6673e-02  3.4022e-02  4.3490e-02  4.1077e-02  9.9511e-01  4.8763e-01  7.6588e+04  0:03:18  288

 turbulent viscosity limited to viscosity ratio of 1.000000e+05 in 77912 cells 
   213  1.2515e+05  3.1924e-02  3.1488e-02  3.7792e-02  3.5990e-02  9.8864e-01  4.8319e-01  5.4437e+04  0:03:18  287

 turbulent viscosity limited to viscosity ratio of 1.000000e+05 in 83169 cells 
   214  1.5235e+05  2.8778e-02  2.9726e-02  3.1429e-02  3.7991e-02  9.9205e-01  4.8759e-01 -3.5302e+04  0:03:18  286

 turbulent viscosity limited to viscosity ratio of 1.000000e+05 in 88173 cells 
   215  1.8744e+05  2.7934e-02  2.9437e-02  3.2121e-02  3.4707e-02  9.7026e-01  4.7540e-01 -1.6035e+05  0:03:17  285

 turbulent viscosity limited to viscosity ratio of 1.000000e+05 in 96551 cells 
   216  2.3547e+05  2.5561e-02  2.7710e-02  3.1469e-02  3.3111e-02  9.5478e-01  4.5628e-01 -3.2492e+05  0:03:17  284

 turbulent viscosity limited to viscosity ratio of 1.000000e+05 in 98664 cells 
   217  2.8046e+05  2.5872e-02  2.8129e-02  2.9429e-02  3.1591e-02  9.8276e-01  4.7981e-01 -7.2195e+05  0:03:16  283

 turbulent viscosity limited to viscosity ratio of 1.000000e+05 in 99499 cells 
   218  3.5782e+05  2.7144e-02  2.8359e-02  2.8909e-02  2.9798e-02  9.7490e-01  4.8063e-01 -1.1248e+06  0:03:15  282

 turbulent viscosity limited to viscosity ratio of 1.000000e+05 in 99840 cells 
   219  4.4506e+05  2.6326e-02  2.8240e-02  2.8563e-02  2.9338e-02  9.6677e-01  4.6998e-01 -1.5288e+06  0:03:14  281

 turbulent viscosity limited to viscosity ratio of 1.000000e+05 in 99853 cells 
   220  5.5013e+05  2.6405e-02  2.8619e-02  2.9117e-02  2.9992e-02  9.7097e-01  4.6674e-01 -1.8104e+06  0:03:14  280

 turbulent viscosity limited to viscosity ratio of 1.000000e+05 in 99855 cells 

  iter  continuity  x-velocity  y-velocity  z-velocity      energy           k       omega  report-def     time/iter
   221  7.3406e+05  2.6111e-02  2.9765e-02  2.9404e-02  3.2566e-02  9.8295e-01  4.8679e-01 -1.8483e+06  0:03:13  279

 turbulent viscosity limited to viscosity ratio of 1.000000e+05 in 100105 cells 
   222  9.9768e+05  2.7107e-02  3.2406e-02  2.9568e-02  3.3572e-02  9.9125e-01  4.9242e-01 -1.8878e+06  0:03:17  278

 turbulent viscosity limited to viscosity ratio of 1.000000e+05 in 100226 cells 
   223  1.0483e+06  2.9276e-02  3.5599e-02  3.1076e-02  3.6851e-02  9.9609e-01  4.9743e-01 -1.2940e+06  0:03:15  277

 turbulent viscosity limited to viscosity ratio of 1.000000e+05 in 99957 cells 
   224  1.4932e+06  3.3272e-02  3.8317e-02  3.5270e-02  4.5005e-02  9.9278e-01  4.9829e-01 -8.6081e+05  0:03:14  276

 turbulent viscosity limited to viscosity ratio of 1.000000e+05 in 101356 cells 
   225  2.0507e+06  3.2139e-02  3.9975e-02  4.0755e-02  4.0597e-02  9.9325e-01  4.9733e-01 -4.1626e+05  0:03:13  275

 turbulent viscosity limited to viscosity ratio of 1.000000e+05 in 102866 cells 
   226  2.8312e+06  3.0506e-02  3.8517e-02  3.5124e-02  4.0673e-02  9.9265e-01  4.9397e-01 -2.0966e+05  0:03:16  274

 turbulent viscosity limited to viscosity ratio of 1.000000e+05 in 104210 cells 
   227  3.4029e+06  3.0839e-02  3.8541e-02  3.4345e-02  4.0117e-02  9.9441e-01  4.9611e-01 -2.7657e+05  0:03:19  273

 turbulent viscosity limited to viscosity ratio of 1.000000e+05 in 104528 cells 
   228  4.2471e+06  3.0618e-02  3.8445e-02  3.4391e-02  4.0882e-02  9.9932e-01  4.9947e-01 -1.0679e+06  0:03:22  272

 absolute pressure limited to 5.000000e+10 in 1 cells on zone 14524 

 turbulent viscosity limited to viscosity ratio of 1.000000e+05 in 104763 cells 
   229  4.8461e+06  2.9407e-02  3.6558e-02  3.6247e-02  5.2793e-02  9.9951e-01  5.0007e-01 -2.8371e+06  0:03:23  271

 absolute pressure limited to 5.000000e+10 in 4 cells on zone 14524 

 turbulent viscosity limited to viscosity ratio of 1.000000e+05 in 105302 cells 
   230  5.8590e+06  3.5403e-02  4.2630e-02  3.9024e-02  5.3933e-02  9.9920e-01  4.9925e-01 -5.1365e+06  0:03:19  270

 absolute pressure limited to 5.000000e+10 in 7 cells on zone 14524 

 turbulent viscosity limited to viscosity ratio of 1.000000e+05 in 105743 cells 
   231  7.7194e+06  3.2996e-02  3.9660e-02  3.8288e-02  4.9961e-02  9.9871e-01  4.9930e-01 -8.1935e+06  0:03:16  269

 absolute pressure limited to 5.000000e+10 in 29 cells on zone 14524 

 turbulent viscosity limited to viscosity ratio of 1.000000e+05 in 105047 cells 

  iter  continuity  x-velocity  y-velocity  z-velocity      energy           k       omega  report-def     time/iter
   232  1.0040e+07  3.2007e-02  3.9046e-02  3.6014e-02  4.4653e-02  9.9598e-01  4.9574e-01 -1.1280e+07  0:03:18  268

 absolute pressure limited to 5.000000e+10 in 58 cells on zone 14524 

 turbulent viscosity limited to viscosity ratio of 1.000000e+05 in 104453 cells 
   233  1.0568e+07  3.1050e-02  4.0409e-02  3.2660e-02  3.9580e-02  9.9818e-01  4.9835e-01 -1.4805e+07  0:03:15  267

 absolute pressure limited to 5.000000e+10 in 123 cells on zone 14524 

 turbulent viscosity limited to viscosity ratio of 1.000000e+05 in 103780 cells 
   234  1.4803e+07  3.1366e-02  3.6536e-02  3.0776e-02  4.1391e-02  9.9829e-01  4.9798e-01 -2.0849e+07  0:03:12  266

 absolute pressure limited to 5.000000e+10 in 222 cells on zone 14524 

 turbulent viscosity limited to viscosity ratio of 1.000000e+05 in 103538 cells 
   235  2.0544e+07  2.9783e-02  3.3864e-02  3.1088e-02  4.1145e-02  9.9857e-01  4.9888e-01 -2.6911e+07  0:03:09  265

 absolute pressure limited to 5.000000e+10 in 2235 cells on zone 14524 

 turbulent viscosity limited to viscosity ratio of 1.000000e+05 in 102597 cells 
   236  2.7226e+07  2.7842e-02  3.7839e-02  2.9267e-02  4.0033e-02  9.9791e-01  4.9729e-01 -2.8515e+07  0:03:12  264

 absolute pressure limited to 5.000000e+10 in 117434 cells on zone 14524 

 turbulent viscosity limited to viscosity ratio of 1.000000e+05 in 101586 cells 
   237  2.9508e+07  2.8989e-02  4.3898e-02  3.2856e-02  4.7019e-02  9.9166e-01  4.9398e-01 -2.8072e+05  0:03:15  263

 absolute pressure limited to 5.000000e+10 in 119730 cells on zone 14524 

 turbulent viscosity limited to viscosity ratio of 1.000000e+05 in 100673 cells 
   238  3.1708e+07  3.2631e-02  4.4545e-02  3.8270e-02  4.7320e-02  9.9078e-01  4.9336e-01 -2.7698e+05  0:03:16  262

 absolute pressure limited to 5.000000e+10 in 119527 cells on zone 14524 

 turbulent viscosity limited to viscosity ratio of 1.000000e+05 in 100118 cells 
   239  3.3354e+07  3.6686e-02  4.9952e-02  4.1201e-02  6.8803e-02  9.9878e-01  4.9818e-01 -2.2385e+05  0:03:18  261

 absolute pressure limited to 5.000000e+10 in 120005 cells on zone 14524 

 turbulent viscosity limited to viscosity ratio of 1.000000e+05 in 99813 cells 
   240  2.6608e+07  3.8483e-02  5.2793e-02  3.9931e-02  6.0309e-02  9.9990e-01  4.9847e-01 -2.6037e+05  0:03:18  260

 absolute pressure limited to 5.000000e+10 in 120052 cells on zone 14524 

 turbulent viscosity limited to viscosity ratio of 1.000000e+05 in 99336 cells 
   241  2.4974e+07  3.5589e-02  5.2135e-02  3.6706e-02  6.4312e-02  1.0003e+00  4.9895e-01 -2.7510e+05  0:03:18  259

 absolute pressure limited to 5.000000e+10 in 119982 cells on zone 14524 

 turbulent viscosity limited to viscosity ratio of 1.000000e+05 in 99170 cells 
   242  2.4083e+07  3.8803e-02  4.7180e-02  4.0601e-02  6.9959e-02  1.0037e+00  4.9937e-01 -2.7157e+05  0:03:18  258

 absolute pressure limited to 5.000000e+10 in 120170 cells on zone 14524 

 turbulent viscosity limited to viscosity ratio of 1.000000e+05 in 98760 cells 

  iter  continuity  x-velocity  y-velocity  z-velocity      energy           k       omega  report-def     time/iter
   243  2.0334e+07  3.7203e-02  5.0267e-02  3.9638e-02  5.4825e-02  1.0070e+00  5.0232e-01 -3.2594e+05  0:03:18  257

 absolute pressure limited to 5.000000e+10 in 120028 cells on zone 14524 

 turbulent viscosity limited to viscosity ratio of 1.000000e+05 in 98393 cells 
   244  1.9592e+07  3.5443e-02  4.8499e-02  4.3615e-02  6.2109e-02  1.0058e+00  5.0054e-01 -3.4441e+05  0:03:18  256

 absolute pressure limited to 5.000000e+10 in 120159 cells on zone 14524 

 turbulent viscosity limited to viscosity ratio of 1.000000e+05 in 97972 cells 
   245  1.8195e+07  4.0092e-02  5.0044e-02  4.3640e-02  6.2871e-02  1.0075e+00  5.0169e-01 -4.4087e+05  0:03:18  255

 absolute pressure limited to 5.000000e+10 in 120301 cells on zone 14524 

 turbulent viscosity limited to viscosity ratio of 1.000000e+05 in 98155 cells 
   246  2.0115e+07  4.2617e-02  5.2379e-02  4.8975e-02  5.7893e-02  1.0035e+00  5.0108e-01 -4.8751e+05  0:03:13  254

 absolute pressure limited to 5.000000e+10 in 120357 cells on zone 14524 

 turbulent viscosity limited to viscosity ratio of 1.000000e+05 in 97831 cells 
   247  3.1463e+07  3.8550e-02  4.7430e-02  5.2291e-02  6.4962e-02  1.0176e+00  5.0521e-01 -5.7200e+05  0:03:13  253

 absolute pressure limited to 5.000000e+10 in 120315 cells on zone 14524 

 turbulent viscosity limited to viscosity ratio of 1.000000e+05 in 98314 cells 
   248  3.2012e+07  3.5382e-02  4.4608e-02  6.1475e-02  5.8505e-02  1.0042e+00  5.0130e-01 -5.0442e+05  0:03:09  252

 absolute pressure limited to 5.000000e+10 in 120401 cells on zone 14524 

 turbulent viscosity limited to viscosity ratio of 1.000000e+05 in 98001 cells 
   249  3.0866e+07  3.2126e-02  4.6132e-02  4.8517e-02  4.9553e-02  1.0017e+00  5.0015e-01 -3.8761e+05  0:03:10  251

 absolute pressure limited to 5.000000e+10 in 120461 cells on zone 14524 

 turbulent viscosity limited to viscosity ratio of 1.000000e+05 in 97549 cells 
   250  3.1774e+07  3.6310e-02  5.8902e-02  5.4115e-02  4.9269e-02  1.0028e+00  5.0076e-01 -3.4208e+05  0:03:11  250

 absolute pressure limited to 5.000000e+10 in 120450 cells on zone 14524 

 turbulent viscosity limited to viscosity ratio of 1.000000e+05 in 97267 cells 
   251  3.9484e+07  3.7813e-02  5.8982e-02  5.6182e-02  4.6288e-02  1.0032e+00  5.0199e-01 -3.0488e+05  0:03:11  249

 absolute pressure limited to 5.000000e+10 in 120358 cells on zone 14524 

 turbulent viscosity limited to viscosity ratio of 1.000000e+05 in 97428 cells 
   252  3.8294e+07  3.0543e-02  5.2712e-02  6.0138e-02  5.0827e-02  1.0014e+00  5.0078e-01 -2.6092e+05  0:03:11  248

 absolute pressure limited to 5.000000e+10 in 120441 cells on zone 14524 

 turbulent viscosity limited to viscosity ratio of 1.000000e+05 in 96881 cells 
   253  3.6227e+07  3.0436e-02  5.7241e-02  5.3678e-02  6.3706e-02  1.0032e+00  5.0081e-01 -2.2350e+05  0:03:11  247

 absolute pressure limited to 5.000000e+10 in 120451 cells on zone 14524 

 turbulent viscosity limited to viscosity ratio of 1.000000e+05 in 96859 cells 

  iter  continuity  x-velocity  y-velocity  z-velocity      energy           k       omega  report-def     time/iter
   254  3.7565e+07  3.5748e-02  6.2630e-02  5.1246e-02  5.6920e-02  1.0004e+00  4.9972e-01 -2.0369e+05  0:03:11  246

 absolute pressure limited to 5.000000e+10 in 120431 cells on zone 14524 

 turbulent viscosity limited to viscosity ratio of 1.000000e+05 in 96595 cells 
   255  4.2225e+07  3.4297e-02  6.0252e-02  5.2757e-02  5.6725e-02  1.0032e+00  5.0055e-01 -1.6798e+05  0:03:11  245

 absolute pressure limited to 5.000000e+10 in 120361 cells on zone 14524 

 turbulent viscosity limited to viscosity ratio of 1.000000e+05 in 96722 cells 
   256  4.1547e+07  2.8823e-02  5.3186e-02  6.0739e-02  6.4071e-02  1.0030e+00  5.0080e-01 -1.5509e+05  0:03:10  244

 absolute pressure limited to 5.000000e+10 in 120427 cells on zone 14524 

 turbulent viscosity limited to viscosity ratio of 1.000000e+05 in 97560 cells 
   257  4.1708e+07  3.0255e-02  5.3891e-02  5.7746e-02  5.9330e-02  9.9921e-01  4.9705e-01 -1.3956e+05  0:03:11  243

 absolute pressure limited to 5.000000e+10 in 120438 cells on zone 14524 

 turbulent viscosity limited to viscosity ratio of 1.000000e+05 in 99610 cells 
   258  4.5688e+07  3.1273e-02  5.9967e-02  5.5036e-02  5.4632e-02  9.9882e-01  4.9806e-01 -1.2756e+05  0:03:10  242

 absolute pressure limited to 5.000000e+10 in 120434 cells on zone 14524 

 turbulent viscosity limited to viscosity ratio of 1.000000e+05 in 102112 cells 
   259  5.1034e+07  2.9316e-02  5.2322e-02  5.7265e-02  5.5224e-02  9.9948e-01  4.9782e-01 -1.1648e+05  0:03:09  241

 absolute pressure limited to 5.000000e+10 in 120406 cells on zone 14524 

 turbulent viscosity limited to viscosity ratio of 1.000000e+05 in 104994 cells 
   260  4.9868e+07  2.7818e-02  5.0326e-02  5.9369e-02  5.8578e-02  1.0051e+00  5.0017e-01 -1.0569e+05  0:03:08  240

 absolute pressure limited to 5.000000e+10 in 120437 cells on zone 14524 

 turbulent viscosity limited to viscosity ratio of 1.000000e+05 in 107036 cells 
   261  5.1107e+07  2.9638e-02  5.7087e-02  5.5945e-02  5.9371e-02  1.0105e+00  5.0600e-01 -9.5674e+04  0:03:07  239

 absolute pressure limited to 5.000000e+10 in 120433 cells on zone 14524 

 turbulent viscosity limited to viscosity ratio of 1.000000e+05 in 107664 cells 
   262  5.9430e+07  3.0024e-02  5.8765e-02  5.8420e-02  5.5624e-02  1.0000e+00  4.9994e-01 -8.7717e+04  0:03:06  238

 absolute pressure limited to 5.000000e+10 in 120416 cells on zone 14524 

 turbulent viscosity limited to viscosity ratio of 1.000000e+05 in 108535 cells 
   263  6.5149e+07  2.7409e-02  5.2832e-02  5.5909e-02  7.9666e-02  9.9975e-01  4.9964e-01 -8.5276e+04  0:03:01  237

 absolute pressure limited to 5.000000e+10 in 120471 cells on zone 14524 

 turbulent viscosity limited to viscosity ratio of 1.000000e+05 in 108815 cells 
   264  8.4027e+07  2.7776e-02  5.2679e-02  3.9593e-02  6.3023e-02  9.9882e-01  4.9897e-01 -8.4169e+04  0:02:57  236

 absolute pressure limited to 5.000000e+10 in 120569 cells on zone 14524 

 turbulent viscosity limited to viscosity ratio of 1.000000e+05 in 108802 cells 

  iter  continuity  x-velocity  y-velocity  z-velocity      energy           k       omega  report-def     time/iter
   265  1.2053e+08  2.6205e-02  5.3424e-02  3.9377e-02  5.1640e-02  9.9185e-01  4.9628e-01 -7.2600e+04  0:02:54  235

 absolute pressure limited to 5.000000e+10 in 120581 cells on zone 14524 

 turbulent viscosity limited to viscosity ratio of 1.000000e+05 in 109243 cells 
   266  1.4716e+08  2.5673e-02  5.4900e-02  3.8620e-02  4.3291e-02  9.9500e-01  4.9657e-01 -7.0941e+04  0:02:51  234

 absolute pressure limited to 5.000000e+10 in 120587 cells on zone 14524 

 turbulent viscosity limited to viscosity ratio of 1.000000e+05 in 109140 cells 
   267  1.5202e+08  2.5398e-02  5.6240e-02  4.1659e-02  4.0082e-02  9.7967e-01  4.9043e-01 -6.0695e+04  0:02:49  233

 absolute pressure limited to 5.000000e+10 in 120580 cells on zone 14524 

 turbulent viscosity limited to viscosity ratio of 1.000000e+05 in 109153 cells 
   268  1.5405e+08  2.4135e-02  5.2347e-02  4.3095e-02  3.7391e-02  9.5830e-01  4.8130e-01 -5.8622e+04  0:02:47  232

 absolute pressure limited to 5.000000e+10 in 120573 cells on zone 14524 

 turbulent viscosity limited to viscosity ratio of 1.000000e+05 in 109117 cells 
   269  1.5650e+08  2.3267e-02  4.8339e-02  4.4713e-02  3.1671e-02  9.2482e-01  4.7019e-01 -5.0913e+04  0:02:45  231

 absolute pressure limited to 5.000000e+10 in 120567 cells on zone 14524 

 turbulent viscosity limited to viscosity ratio of 1.000000e+05 in 109238 cells 
   270  1.6515e+08  2.2031e-02  4.6566e-02  4.6592e-02  3.1524e-02  9.9840e-01  4.9798e-01 -5.3648e+04  0:02:43  230

 absolute pressure limited to 5.000000e+10 in 120566 cells on zone 14524 

 turbulent viscosity limited to viscosity ratio of 1.000000e+05 in 109269 cells 
   271  1.7717e+08  2.1543e-02  4.6562e-02  4.6493e-02  3.1426e-02  9.9457e-01  4.9634e-01 -4.6846e+04  0:02:42  229

 absolute pressure limited to 5.000000e+10 in 120579 cells on zone 14524 

 turbulent viscosity limited to viscosity ratio of 1.000000e+05 in 109632 cells 
   272  1.9262e+08  2.1266e-02  4.7109e-02  4.8869e-02  3.0257e-02  9.9740e-01  4.9750e-01 -5.0079e+04  0:02:41  228

 absolute pressure limited to 5.000000e+10 in 120564 cells on zone 14524 

 turbulent viscosity limited to viscosity ratio of 1.000000e+05 in 109888 cells 
   273  2.0318e+08  2.0597e-02  4.6708e-02  4.8032e-02  2.8993e-02  9.9520e-01  4.9608e-01 -4.8600e+04  0:02:40  227

 absolute pressure limited to 5.000000e+10 in 120565 cells on zone 14524 

 turbulent viscosity limited to viscosity ratio of 1.000000e+05 in 110162 cells 
   274  2.2175e+08  2.1005e-02  4.6641e-02  4.8515e-02  2.8320e-02  9.9450e-01  4.9572e-01 -4.9985e+04  0:02:39  226

 absolute pressure limited to 5.000000e+10 in 120578 cells on zone 14524 

 turbulent viscosity limited to viscosity ratio of 1.000000e+05 in 110447 cells 
   275  2.3365e+08  2.1117e-02  4.7365e-02  4.8224e-02  2.6963e-02  9.9703e-01  4.9691e-01 -4.4329e+04  0:02:38  225

 absolute pressure limited to 5.000000e+10 in 120584 cells on zone 14524 

 turbulent viscosity limited to viscosity ratio of 1.000000e+05 in 110753 cells 

  iter  continuity  x-velocity  y-velocity  z-velocity      energy           k       omega  report-def     time/iter
   276  2.5075e+08  2.0400e-02  4.6298e-02  5.0102e-02  2.4690e-02  9.9789e-01  4.9781e-01 -4.3238e+04  0:02:37  224

 absolute pressure limited to 5.000000e+10 in 120579 cells on zone 14524 

 turbulent viscosity limited to viscosity ratio of 1.000000e+05 in 110877 cells 
   277  2.7709e+08  1.9372e-02  4.4422e-02  4.9026e-02  2.3709e-02  9.9764e-01  4.9764e-01 -3.9250e+04  0:02:36  223

 absolute pressure limited to 5.000000e+10 in 120557 cells on zone 14524 

 turbulent viscosity limited to viscosity ratio of 1.000000e+05 in 110821 cells 
   278  2.7480e+08  1.8842e-02  4.3914e-02  4.7697e-02  2.4741e-02  9.9532e-01  4.9632e-01 -3.8076e+04  0:02:35  222

 absolute pressure limited to 5.000000e+10 in 120567 cells on zone 14524 

 turbulent viscosity limited to viscosity ratio of 1.000000e+05 in 110930 cells 
   279  2.8832e+08  1.8705e-02  4.2910e-02  4.6309e-02  2.6960e-02  9.9507e-01  4.9538e-01 -3.5760e+04  0:02:35  221

 absolute pressure limited to 5.000000e+10 in 120566 cells on zone 14524 

 turbulent viscosity limited to viscosity ratio of 1.000000e+05 in 111039 cells 
   280  3.0581e+08  1.8862e-02  4.2117e-02  4.3672e-02  2.5597e-02  9.9239e-01  4.9429e-01 -3.5132e+04  0:02:34  220

 absolute pressure limited to 5.000000e+10 in 120556 cells on zone 14524 

 turbulent viscosity limited to viscosity ratio of 1.000000e+05 in 111400 cells 
   281  3.1120e+08  1.8873e-02  4.2623e-02  4.4296e-02  2.9249e-02  9.8314e-01  4.8926e-01 -3.3969e+04  0:02:33  219

 absolute pressure limited to 5.000000e+10 in 120560 cells on zone 14524 

 turbulent viscosity limited to viscosity ratio of 1.000000e+05 in 111657 cells 
   282  3.2067e+08  1.9140e-02  4.4537e-02  4.2898e-02  3.0635e-02  9.9729e-01  4.9690e-01 -3.2194e+04  0:02:32  218

 absolute pressure limited to 5.000000e+10 in 120555 cells on zone 14524 

 turbulent viscosity limited to viscosity ratio of 1.000000e+05 in 111964 cells 
   283  3.3432e+08  2.0566e-02  4.6810e-02  4.2546e-02  3.1102e-02  9.9412e-01  4.9552e-01 -3.1266e+04  0:02:31  217

 absolute pressure limited to 5.000000e+10 in 120542 cells on zone 14524 

 turbulent viscosity limited to viscosity ratio of 1.000000e+05 in 112245 cells 
   284  3.4547e+08  2.0777e-02  4.7609e-02  4.2818e-02  3.2251e-02  9.9908e-01  4.9903e-01 -3.0675e+04  0:02:31  216

 absolute pressure limited to 5.000000e+10 in 120537 cells on zone 14524 

 turbulent viscosity limited to viscosity ratio of 1.000000e+05 in 112585 cells 
   285  3.5075e+08  2.0575e-02  4.7222e-02  4.2395e-02  3.8387e-02  9.9654e-01  4.9798e-01 -3.0133e+04  0:02:30  215

 absolute pressure limited to 5.000000e+10 in 120558 cells on zone 14524 

 turbulent viscosity limited to viscosity ratio of 1.000000e+05 in 112739 cells 
   286  3.7414e+08  2.0706e-02  4.7778e-02  4.2126e-02  3.7840e-02  9.9804e-01  4.9842e-01 -2.9287e+04  0:02:30  214

 absolute pressure limited to 5.000000e+10 in 120555 cells on zone 14524 

 turbulent viscosity limited to viscosity ratio of 1.000000e+05 in 112642 cells 

  iter  continuity  x-velocity  y-velocity  z-velocity      energy           k       omega  report-def     time/iter
   287  3.9791e+08  2.0887e-02  4.8188e-02  4.0421e-02  3.4215e-02  9.9321e-01  4.9638e-01 -2.7649e+04  0:02:29  213

 absolute pressure limited to 5.000000e+10 in 120523 cells on zone 14524 

 turbulent viscosity limited to viscosity ratio of 1.000000e+05 in 112308 cells 
   288  3.7861e+08  2.0341e-02  4.6696e-02  3.7505e-02  3.1950e-02  9.8641e-01  4.9330e-01 -2.6619e+04  0:02:28  212

 absolute pressure limited to 5.000000e+10 in 120530 cells on zone 14524 

 turbulent viscosity limited to viscosity ratio of 1.000000e+05 in 111924 cells 
   289  3.6375e+08  2.0519e-02  4.6699e-02  3.5824e-02  3.5137e-02  9.8121e-01  4.8933e-01 -2.6706e+04  0:02:28  211

 absolute pressure limited to 5.000000e+10 in 120558 cells on zone 14524 

 turbulent viscosity limited to viscosity ratio of 1.000000e+05 in 111587 cells 
   290  4.0654e+08  2.0249e-02  4.5657e-02  3.5563e-02  3.3475e-02  9.9755e-01  4.9717e-01 -2.7477e+04  0:02:27  210

 absolute pressure limited to 5.000000e+10 in 120512 cells on zone 14524 

 turbulent viscosity limited to viscosity ratio of 1.000000e+05 in 111210 cells 
   291  4.0077e+08  2.0447e-02  4.7681e-02  3.4556e-02  3.8000e-02  9.9178e-01  4.9415e-01 -2.7342e+04  0:02:26  209

 absolute pressure limited to 5.000000e+10 in 120521 cells on zone 14524 

 turbulent viscosity limited to viscosity ratio of 1.000000e+05 in 110998 cells 
   292  3.7829e+08  2.0900e-02  4.9552e-02  3.7136e-02  4.2024e-02  9.9948e-01  4.9945e-01 -2.7398e+04  0:02:26  208

 absolute pressure limited to 5.000000e+10 in 120534 cells on zone 14524 

 turbulent viscosity limited to viscosity ratio of 1.000000e+05 in 110673 cells 
   293  4.1473e+08  2.1918e-02  5.0159e-02  3.8466e-02  3.9556e-02  9.9759e-01  4.9871e-01 -2.6768e+04  0:02:26  207

 absolute pressure limited to 5.000000e+10 in 120533 cells on zone 14524 

 turbulent viscosity limited to viscosity ratio of 1.000000e+05 in 110272 cells 
   294  4.2235e+08  2.1442e-02  4.9841e-02  3.8285e-02  3.5448e-02  9.9043e-01  4.9656e-01 -2.7543e+04  0:02:25  206

 absolute pressure limited to 5.000000e+10 in 120547 cells on zone 14524 

 turbulent viscosity limited to viscosity ratio of 1.000000e+05 in 110123 cells 
   295  4.2554e+08  2.0687e-02  4.8851e-02  3.3910e-02  3.3989e-02  9.8151e-01  4.9297e-01 -2.8353e+04  0:02:25  205

 absolute pressure limited to 5.000000e+10 in 120519 cells on zone 14524 

 turbulent viscosity limited to viscosity ratio of 1.000000e+05 in 109838 cells 
   296  4.2878e+08  2.0291e-02  4.7464e-02  3.0721e-02  3.7903e-02  9.9979e-01  4.9977e-01 -3.1047e+04  0:02:24  204

 absolute pressure limited to 5.000000e+10 in 120514 cells on zone 14524 

 turbulent viscosity limited to viscosity ratio of 1.000000e+05 in 109669 cells 
   297  4.0625e+08  2.0406e-02  4.7676e-02  2.9872e-02  3.6023e-02  9.9872e-01  4.9943e-01 -3.2159e+04  0:02:23  203

 absolute pressure limited to 5.000000e+10 in 120522 cells on zone 14524 

 turbulent viscosity limited to viscosity ratio of 1.000000e+05 in 109651 cells 

  iter  continuity  x-velocity  y-velocity  z-velocity      energy           k       omega  report-def     time/iter
   298  3.9637e+08  2.0957e-02  4.9156e-02  2.9594e-02  4.0997e-02  9.9578e-01  4.9913e-01 -3.0513e+04  0:02:22  202

 absolute pressure limited to 5.000000e+10 in 120518 cells on zone 14524 

 turbulent viscosity limited to viscosity ratio of 1.000000e+05 in 109565 cells 
   299  4.1313e+08  2.2599e-02  5.1365e-02  3.2294e-02  4.1601e-02  9.9504e-01  4.9837e-01 -3.0637e+04  0:02:21  201

 absolute pressure limited to 5.000000e+10 in 120508 cells on zone 14524 

 turbulent viscosity limited to viscosity ratio of 1.000000e+05 in 109560 cells 
   300  4.1834e+08  2.1691e-02  5.1423e-02  3.2399e-02  4.0005e-02  9.9501e-01  4.9671e-01 -3.0827e+04  0:02:31  200

 absolute pressure limited to 5.000000e+10 in 120506 cells on zone 14524 

 turbulent viscosity limited to viscosity ratio of 1.000000e+05 in 109599 cells 
   301  4.2101e+08  2.1138e-02  5.0448e-02  3.3807e-02  3.7700e-02  9.9652e-01  4.9640e-01 -3.2193e+04  0:02:28  199

 absolute pressure limited to 5.000000e+10 in 120537 cells on zone 14524 

 turbulent viscosity limited to viscosity ratio of 1.000000e+05 in 109535 cells 
   302  4.4841e+08  2.0524e-02  4.7661e-02  3.1259e-02  3.5495e-02  9.8890e-01  4.9243e-01 -3.3197e+04  0:02:26  198

 absolute pressure limited to 5.000000e+10 in 120510 cells on zone 14524 

 turbulent viscosity limited to viscosity ratio of 1.000000e+05 in 109437 cells 
   303  4.4038e+08  2.0238e-02  4.6385e-02  3.1636e-02  3.6480e-02  9.8378e-01  4.9006e-01 -3.2665e+04  0:02:24  197

 absolute pressure limited to 5.000000e+10 in 120526 cells on zone 14524 

 turbulent viscosity limited to viscosity ratio of 1.000000e+05 in 109559 cells 
   304  4.3225e+08  1.9334e-02  4.5042e-02  3.0693e-02  3.5540e-02  9.9476e-01  4.9306e-01 -3.2629e+04  0:02:22  196

 absolute pressure limited to 5.000000e+10 in 120503 cells on zone 14524 

 turbulent viscosity limited to viscosity ratio of 1.000000e+05 in 109570 cells 
   305  4.4183e+08  1.9144e-02  4.3013e-02  3.1046e-02  3.6694e-02  9.8857e-01  4.9073e-01 -3.2917e+04  0:02:20  195

 absolute pressure limited to 5.000000e+10 in 120530 cells on zone 14524 

 turbulent viscosity limited to viscosity ratio of 1.000000e+05 in 109856 cells 
   306  4.3565e+08  1.9915e-02  4.5620e-02  3.0992e-02  3.7216e-02  9.9950e-01  4.9956e-01 -3.2844e+04  0:02:19  194

 absolute pressure limited to 5.000000e+10 in 120520 cells on zone 14524 

 turbulent viscosity limited to viscosity ratio of 1.000000e+05 in 109968 cells 
   307  4.5725e+08  2.1333e-02  4.8899e-02  3.4599e-02  3.7832e-02  9.9716e-01  4.9884e-01 -3.3720e+04  0:02:18  193

 absolute pressure limited to 5.000000e+10 in 120521 cells on zone 14524 

 turbulent viscosity limited to viscosity ratio of 1.000000e+05 in 110007 cells 
   308  4.8538e+08  2.1704e-02  5.0721e-02  3.3808e-02  3.7164e-02  9.9970e-01  4.9965e-01 -3.1461e+04  0:02:17  192

 absolute pressure limited to 5.000000e+10 in 120503 cells on zone 14524 

 turbulent viscosity limited to viscosity ratio of 1.000000e+05 in 110058 cells 

  iter  continuity  x-velocity  y-velocity  z-velocity      energy           k       omega  report-def     time/iter
   309  4.7702e+08  2.1814e-02  5.1326e-02  3.3866e-02  3.2836e-02  9.9859e-01  4.9922e-01 -3.3488e+04  0:02:16  191

 absolute pressure limited to 5.000000e+10 in 120520 cells on zone 14524 

 turbulent viscosity limited to viscosity ratio of 1.000000e+05 in 110181 cells 
   310  4.8819e+08  2.1067e-02  4.9880e-02  2.9921e-02  3.5844e-02  9.9367e-01  4.9834e-01 -2.9469e+04  0:02:15  190

 absolute pressure limited to 5.000000e+10 in 120494 cells on zone 14524 

 turbulent viscosity limited to viscosity ratio of 1.000000e+05 in 109869 cells 
   311  5.0867e+08  2.1921e-02  5.0396e-02  3.4100e-02  4.0605e-02  9.9381e-01  4.9792e-01 -3.2100e+04  0:02:14  189

 absolute pressure limited to 5.000000e+10 in 120522 cells on zone 14524 

 turbulent viscosity limited to viscosity ratio of 1.000000e+05 in 109698 cells 
   312  5.3192e+08  2.1851e-02  5.1820e-02  3.5702e-02  3.7405e-02  9.9907e-01  4.9899e-01 -2.8758e+04  0:02:13  188

 absolute pressure limited to 5.000000e+10 in 120498 cells on zone 14524 

 turbulent viscosity limited to viscosity ratio of 1.000000e+05 in 109720 cells 
   313  5.4318e+08  2.1347e-02  5.0859e-02  3.4426e-02  3.7229e-02  9.9890e-01  4.9893e-01 -3.1962e+04  0:02:12  187

 absolute pressure limited to 5.000000e+10 in 120520 cells on zone 14524 

 turbulent viscosity limited to viscosity ratio of 1.000000e+05 in 109476 cells 
   314  5.4607e+08  2.1217e-02  5.0370e-02  3.3859e-02  4.0728e-02  9.9353e-01  4.9690e-01 -3.0376e+04  0:02:11  186

 absolute pressure limited to 5.000000e+10 in 120516 cells on zone 14524 

 turbulent viscosity limited to viscosity ratio of 1.000000e+05 in 109296 cells 
   315  5.7682e+08  2.1342e-02  5.0147e-02  3.5361e-02  4.0458e-02  9.8282e-01  4.9312e-01 -3.3218e+04  0:02:11  185
 temperature limited to 5.000000e+03 in 3 cells on zone 14524 in domain 1
 
 absolute pressure limited to 5.000000e+10 in 120516 cells on zone 14524 

 turbulent viscosity limited to viscosity ratio of 1.000000e+05 in 108888 cells 
   316  6.1285e+08  2.0804e-02  4.9722e-02  3.3560e-02  3.8123e-02  9.8465e-01  4.8904e-01 -2.8545e+04  0:02:10  184
 temperature limited to 5.000000e+03 in 21 cells on zone 14524 in domain 1
 
 absolute pressure limited to 5.000000e+10 in 120511 cells on zone 14524 

 turbulent viscosity limited to viscosity ratio of 1.000000e+05 in 108663 cells 
   317  6.0890e+08  2.0840e-02  4.9860e-02  3.1664e-02  3.6698e-02  9.6684e-01  4.8289e-01 -3.1488e+04  0:02:09  183
 temperature limited to 5.000000e+03 in 52 cells on zone 14524 in domain 1
 
 absolute pressure limited to 5.000000e+10 in 120492 cells on zone 14524 

 turbulent viscosity limited to viscosity ratio of 1.000000e+05 in 108603 cells 
   318  6.1504e+08  2.0724e-02  4.9959e-02  3.1056e-02  3.8248e-02  9.9518e-01  4.9395e-01 -2.9057e+04  0:02:08  182

 absolute pressure limited to 5.000000e+10 in 120499 cells on zone 14524 

 turbulent viscosity limited to viscosity ratio of 1.000000e+05 in 108573 cells 
   319  6.3797e+08  2.0712e-02  4.9205e-02  3.0998e-02  3.5045e-02  9.8530e-01  4.8953e-01 -3.1817e+04  0:02:08  181
 temperature limited to 5.000000e+03 in 17 cells on zone 14524 in domain 1
 
 absolute pressure limited to 5.000000e+10 in 120497 cells on zone 14524 

 turbulent viscosity limited to viscosity ratio of 1.000000e+05 in 108678 cells 

  iter  continuity  x-velocity  y-velocity  z-velocity      energy           k       omega  report-def     time/iter
   320  6.3970e+08  1.9527e-02  4.6873e-02  3.0640e-02  3.7421e-02  9.9137e-01  4.9076e-01 -2.7011e+04  0:02:07  180
 temperature limited to 5.000000e+03 in 28 cells on zone 14524 in domain 1
 
 absolute pressure limited to 5.000000e+10 in 120498 cells on zone 14524 

 turbulent viscosity limited to viscosity ratio of 1.000000e+05 in 108601 cells 
   321  6.6139e+08  2.0332e-02  4.8288e-02  3.1741e-02  3.7418e-02  9.9340e-01  4.9148e-01 -3.1225e+04  0:02:06  179
 temperature limited to 5.000000e+03 in 41 cells on zone 14524 in domain 1
 
 absolute pressure limited to 5.000000e+10 in 120474 cells on zone 14524 

 turbulent viscosity limited to viscosity ratio of 1.000000e+05 in 108750 cells 
   322  6.7402e+08  2.0834e-02  5.0203e-02  3.2349e-02  3.8658e-02  9.9461e-01  4.9407e-01 -2.8285e+04  0:02:05  178

 absolute pressure limited to 5.000000e+10 in 120488 cells on zone 14524 

 turbulent viscosity limited to viscosity ratio of 1.000000e+05 in 108703 cells 
   323  6.7515e+08  2.0907e-02  4.9990e-02  3.4268e-02  3.9904e-02  9.9656e-01  4.9625e-01 -3.4102e+04  0:02:05  177
 temperature limited to 5.000000e+03 in 38 cells on zone 14524 in domain 1
 
 absolute pressure limited to 5.000000e+10 in 120503 cells on zone 14524 

 turbulent viscosity limited to viscosity ratio of 1.000000e+05 in 108692 cells 
   324  7.3215e+08  2.1818e-02  5.2100e-02  3.3863e-02  3.8702e-02  9.9143e-01  4.9323e-01 -3.1596e+04  0:02:04  176
 temperature limited to 5.000000e+03 in 2 cells on zone 14524 in domain 1
 
 absolute pressure limited to 5.000000e+10 in 120491 cells on zone 14524 

 turbulent viscosity limited to viscosity ratio of 1.000000e+05 in 108614 cells 
   325  7.8718e+08  2.1586e-02  5.2747e-02  3.4886e-02  3.7928e-02  9.9906e-01  4.9909e-01 -3.6835e+04  0:02:03  175
 temperature limited to 5.000000e+03 in 7 cells on zone 14524 in domain 1
 
 absolute pressure limited to 5.000000e+10 in 120504 cells on zone 14524 

 turbulent viscosity limited to viscosity ratio of 1.000000e+05 in 108583 cells 
   326  8.1128e+08  2.1720e-02  5.3816e-02  3.4029e-02  3.8793e-02  9.9482e-01  4.9776e-01 -3.1239e+04  0:02:02  174
 temperature limited to 5.000000e+03 in 62 cells on zone 14524 in domain 1
 
 absolute pressure limited to 5.000000e+10 in 120487 cells on zone 14524 

 turbulent viscosity limited to viscosity ratio of 1.000000e+05 in 108197 cells 
   327  8.3764e+08  2.1247e-02  5.0964e-02  3.3650e-02  3.7253e-02  9.8552e-01  4.9518e-01 -3.4710e+04  0:02:02  173
 temperature limited to 5.000000e+03 in 114 cells on zone 14524 in domain 1
 
 absolute pressure limited to 5.000000e+10 in 120492 cells on zone 14524 

 turbulent viscosity limited to viscosity ratio of 1.000000e+05 in 108418 cells 
   328  8.5907e+08  2.0365e-02  4.9322e-02  3.1603e-02  3.6792e-02  9.8714e-01  4.9315e-01 -3.0631e+04  0:02:01  172
 temperature limited to 5.000000e+03 in 13 cells on zone 14524 in domain 1
 
 absolute pressure limited to 5.000000e+10 in 120471 cells on zone 14524 

 turbulent viscosity limited to viscosity ratio of 1.000000e+05 in 107701 cells 
   329  8.1256e+08  2.0030e-02  4.8636e-02  3.1675e-02  3.7748e-02  9.9981e-01  4.9981e-01 -3.5813e+04  0:02:00  171
 temperature limited to 5.000000e+03 in 767 cells on zone 14524 in domain 1
 
 absolute pressure limited to 5.000000e+10 in 120482 cells on zone 14524 

 turbulent viscosity limited to viscosity ratio of 1.000000e+05 in 107978 cells 
   330  8.3518e+08  2.0796e-02  5.0076e-02  2.9673e-02  4.2090e-02  9.9901e-01  4.9958e-01 -3.1680e+04  0:02:00  170
 temperature limited to 5.000000e+03 in 1171 cells on zone 14524 in domain 1
 
 absolute pressure limited to 5.000000e+10 in 120474 cells on zone 14524 

 turbulent viscosity limited to viscosity ratio of 1.000000e+05 in 107115 cells 

  iter  continuity  x-velocity  y-velocity  z-velocity      energy           k       omega  report-def     time/iter
   331  8.9423e+08  2.0762e-02  4.9931e-02  3.3308e-02  4.0702e-02  9.9614e-01  4.9908e-01 -3.5242e+04  0:01:59  169
 temperature limited to 5.000000e+03 in 2141 cells on zone 14524 in domain 1
  temperature limited to 5.000000e+03 on 6 faces

 absolute pressure limited to 5.000000e+10 in 120469 cells on zone 14524 

 turbulent viscosity limited to viscosity ratio of 1.000000e+05 in 107575 cells 
   332  8.8907e+08  2.0157e-02  4.9399e-02  3.2664e-02  4.0634e-02  9.9926e-01  4.9935e-01 -3.0918e+04  0:01:58  168
 temperature limited to 5.000000e+03 in 1 cells on zone 14524 in domain 1
  temperature limited to 5.000000e+03 on 7 faces

 absolute pressure limited to 5.000000e+10 in 120457 cells on zone 14524 

 turbulent viscosity limited to viscosity ratio of 1.000000e+05 in 107094 cells 
   333  9.1161e+08  2.0296e-02  4.9072e-02  3.4105e-02  4.1134e-02  9.9679e-01  4.9873e-01 -3.3843e+04  0:01:57  167

 absolute pressure limited to 5.000000e+10 in 120481 cells on zone 14524 

 turbulent viscosity limited to viscosity ratio of 1.000000e+05 in 107112 cells 
   334  9.7807e+08  2.0867e-02  5.0937e-02  3.3781e-02  4.1722e-02  9.9199e-01  4.9688e-01 -2.7088e+04  0:01:57  166

 absolute pressure limited to 5.000000e+10 in 120482 cells on zone 14524 

 turbulent viscosity limited to viscosity ratio of 1.000000e+05 in 106505 cells 
   335  1.0182e+09  2.1729e-02  5.3535e-02  3.2778e-02  3.9516e-02  9.9940e-01  4.9940e-01 -2.9350e+04  0:01:56  165

 absolute pressure limited to 5.000000e+10 in 120475 cells on zone 14524 

 turbulent viscosity limited to viscosity ratio of 1.000000e+05 in 107073 cells 
   336  1.0559e+09  2.0854e-02  5.1689e-02  3.1731e-02  3.8824e-02  9.9879e-01  4.9891e-01 -2.5982e+04  0:01:55  164

 absolute pressure limited to 5.000000e+10 in 120441 cells on zone 14524 

 turbulent viscosity limited to viscosity ratio of 1.000000e+05 in 106380 cells 
   337  1.0201e+09  2.0698e-02  5.0987e-02  3.2473e-02  4.1112e-02  9.9488e-01  4.9785e-01 -3.0907e+04  0:01:55  163

 absolute pressure limited to 5.000000e+10 in 120459 cells on zone 14524 

 turbulent viscosity limited to viscosity ratio of 1.000000e+05 in 107028 cells 
   338  1.0715e+09  2.0339e-02  4.9869e-02  3.1614e-02  4.4068e-02  9.9851e-01  4.9844e-01 -2.8301e+04  0:01:54  162
 temperature limited to 1.000000e+00 in 3 cells on zone 14524 in domain 1
 
 absolute pressure limited to 5.000000e+10 in 120478 cells on zone 14524 

 turbulent viscosity limited to viscosity ratio of 1.000000e+05 in 106921 cells 
   339  1.2321e+09  2.0961e-02  5.1283e-02  3.2610e-02  4.2935e-02  9.9476e-01  4.9719e-01 -3.4929e+04  0:01:54  161
 temperature limited to 1.000000e+00 in 9 cells on zone 14524 in domain 1
 
 absolute pressure limited to 5.000000e+10 in 120428 cells on zone 14524 

 turbulent viscosity limited to viscosity ratio of 1.000000e+05 in 106988 cells 
   340  1.2072e+09  2.0657e-02  5.0923e-02  3.3158e-02  4.5276e-02  9.9996e-01  4.9996e-01 -3.2551e+04  0:01:56  160
 temperature limited to 1.000000e+00 in 12 cells on zone 14524 in domain 1
 
 absolute pressure limited to 5.000000e+10 in 120476 cells on zone 14524 

 turbulent viscosity limited to viscosity ratio of 1.000000e+05 in 106852 cells 
   341  1.2043e+09  2.1050e-02  5.2194e-02  3.1461e-02  4.3422e-02  9.9968e-01  4.9987e-01 -3.7938e+04  0:01:55  159
 temperature limited to 1.000000e+00 in 16 cells on zone 14524 in domain 1
 
 absolute pressure limited to 5.000000e+10 in 120457 cells on zone 14524 

 turbulent viscosity limited to viscosity ratio of 1.000000e+05 in 106829 cells 

  iter  continuity  x-velocity  y-velocity  z-velocity      energy           k       omega  report-def     time/iter
   342  1.3166e+09  2.0679e-02  5.1345e-02  3.1461e-02  4.0853e-02  9.9827e-01  4.9968e-01 -3.6095e+04  0:01:53  158
 temperature limited to 1.000000e+00 in 30 cells on zone 14524 in domain 1
 
 absolute pressure limited to 5.000000e+10 in 120455 cells on zone 14524 

 turbulent viscosity limited to viscosity ratio of 1.000000e+05 in 106573 cells 
   343  1.3746e+09  2.0244e-02  5.0584e-02  3.1601e-02  4.1935e-02  9.9117e-01  4.9906e-01 -4.2267e+04  0:01:53  157
 temperature limited to 1.000000e+00 in 39 cells on zone 14524 in domain 1
 
 absolute pressure limited to 5.000000e+10 in 120463 cells on zone 14524 

 turbulent viscosity limited to viscosity ratio of 1.000000e+05 in 106837 cells 
   344  1.5083e+09  2.0070e-02  4.9948e-02  2.8777e-02  3.9214e-02  9.9519e-01  4.9829e-01 -3.9816e+04  0:01:52  156
 temperature limited to 1.000000e+00 in 24 cells on zone 14524 in domain 1
 
 absolute pressure limited to 5.000000e+10 in 120437 cells on zone 14524 

 turbulent viscosity limited to viscosity ratio of 1.000000e+05 in 106783 cells 
[...]
  temperature limited to 5.000000e+03 on 1 faces

 absolute pressure limited to 5.000000e+10 in 120404 cells on zone 14524 

 turbulent viscosity limited to viscosity ratio of 1.000000e+05 in 108180 cells 
   450  5.1675e+10  1.7007e-02  4.6225e-02  3.3791e-02  1.7463e-02  9.5784e-01  4.8714e-01 -4.1915e+04  0:00:35   50
 temperature limited to 1.000000e+00 in 57 cells on zone 14524 in domain 1
  temperature limited to 5.000000e+03 in 56 cells on zone 14524 in domain 1
 
 absolute pressure limited to 5.000000e+10 in 120370 cells on zone 14524 

 turbulent viscosity limited to viscosity ratio of 1.000000e+05 in 108626 cells 
   451  5.4211e+10  1.6289e-02  4.4306e-02  3.2701e-02  1.7389e-02  9.8892e-01  4.8875e-01 -4.5996e+04  0:00:37   49
 temperature limited to 1.000000e+00 in 108 cells on zone 14524 in domain 1
  temperature limited to 5.000000e+03 in 69 cells on zone 14524 in domain 1
 
 absolute pressure limited to 5.000000e+10 in 120382 cells on zone 14524 

 turbulent viscosity limited to viscosity ratio of 1.000000e+05 in 108216 cells 

  iter  continuity  x-velocity  y-velocity  z-velocity      energy           k       omega  report-def     time/iter
   452  5.3673e+10  1.5000e-02  4.0774e-02  3.4293e-02  1.7342e-02  9.9804e-01  4.9821e-01 -4.2942e+04  0:00:36   48
 temperature limited to 1.000000e+00 in 108 cells on zone 14524 in domain 1
  temperature limited to 5.000000e+03 in 90 cells on zone 14524 in domain 1
 
 absolute pressure limited to 5.000000e+10 in 120372 cells on zone 14524 

 turbulent viscosity limited to viscosity ratio of 1.000000e+05 in 108945 cells 
   453  5.5476e+10  1.5444e-02  4.1961e-02  3.3220e-02  1.9027e-02  9.9285e-01  4.9626e-01 -4.6868e+04  0:00:35   47
 temperature limited to 1.000000e+00 in 122 cells on zone 14524 in domain 1
  temperature limited to 5.000000e+03 in 110 cells on zone 14524 in domain 1
 
 absolute pressure limited to 5.000000e+10 in 120400 cells on zone 14524 

 turbulent viscosity limited to viscosity ratio of 1.000000e+05 in 108527 cells 
   454  5.7658e+10  1.6204e-02  4.4088e-02  3.4868e-02  1.9235e-02  9.9161e-01  4.9431e-01 -4.6985e+04  0:00:34   46
 temperature limited to 1.000000e+00 in 107 cells on zone 14524 in domain 1
  temperature limited to 5.000000e+03 in 46 cells on zone 14524 in domain 1
 
 absolute pressure limited to 5.000000e+10 in 120397 cells on zone 14524 

 turbulent viscosity limited to viscosity ratio of 1.000000e+05 in 109331 cells 
   455  6.0910e+10  1.6763e-02  4.5647e-02  3.3836e-02  1.8547e-02  9.9603e-01  4.9639e-01 -4.7297e+04  0:00:33   45
 temperature limited to 1.000000e+00 in 39 cells on zone 14524 in domain 1
  temperature limited to 5.000000e+03 in 131 cells on zone 14524 in domain 1
  temperature limited to 5.000000e+03 on 1 faces

 absolute pressure limited to 5.000000e+10 in 120402 cells on zone 14524 

 turbulent viscosity limited to viscosity ratio of 1.000000e+05 in 109004 cells 
   456  6.1618e+10  1.6891e-02  4.6002e-02  3.3756e-02  1.6689e-02  9.9868e-01  4.9884e-01 -4.3138e+04  0:00:32   44
 temperature limited to 1.000000e+00 in 124 cells on zone 14524 in domain 1
  temperature limited to 5.000000e+03 on 1 faces

 absolute pressure limited to 5.000000e+10 in 120387 cells on zone 14524 

 turbulent viscosity limited to viscosity ratio of 1.000000e+05 in 110222 cells 
   457  6.0204e+10  1.6010e-02  4.3577e-02  3.3323e-02  1.6461e-02  9.9397e-01  4.9744e-01 -3.9973e+04  0:00:31   43
 temperature limited to 1.000000e+00 in 180 cells on zone 14524 in domain 1
 
 absolute pressure limited to 5.000000e+10 in 120383 cells on zone 14524 

 turbulent viscosity limited to viscosity ratio of 1.000000e+05 in 109968 cells 
   458  6.3305e+10  1.5575e-02  4.2352e-02  3.3928e-02  1.6398e-02  9.9976e-01  4.9973e-01 -4.1201e+04  0:00:30   42
 temperature limited to 1.000000e+00 in 112 cells on zone 14524 in domain 1
 
 absolute pressure limited to 5.000000e+10 in 120395 cells on zone 14524 

 turbulent viscosity limited to viscosity ratio of 1.000000e+05 in 110919 cells 
   459  6.6237e+10  1.5202e-02  4.1343e-02  3.5094e-02  1.6306e-02  9.9954e-01  4.9970e-01 -4.4377e+04  0:00:29   41
 temperature limited to 1.000000e+00 in 210 cells on zone 14524 in domain 1
 
 absolute pressure limited to 5.000000e+10 in 120372 cells on zone 14524 

 turbulent viscosity limited to viscosity ratio of 1.000000e+05 in 110231 cells 
   460  6.7902e+10  1.5908e-02  4.3290e-02  3.5554e-02  1.7309e-02  9.9758e-01  4.9933e-01 -3.9213e+04  0:00:29   40
 temperature limited to 1.000000e+00 in 99 cells on zone 14524 in domain 1
  temperature limited to 5.000000e+03 in 4 cells on zone 14524 in domain 1
 
 absolute pressure limited to 5.000000e+10 in 120377 cells on zone 14524 

 turbulent viscosity limited to viscosity ratio of 1.000000e+05 in 110825 cells 
   461  6.5884e+10  1.5949e-02  4.3415e-02  3.7470e-02  1.6829e-02  9.9753e-01  4.9887e-01 -4.2108e+04  0:00:28   39
 temperature limited to 1.000000e+00 in 289 cells on zone 14524 in domain 1
 
 absolute pressure limited to 5.000000e+10 in 120402 cells on zone 14524 

 turbulent viscosity limited to viscosity ratio of 1.000000e+05 in 110389 cells 
   462  7.1916e+10  1.5664e-02  4.2620e-02  3.7897e-02  1.8780e-02  9.9532e-01  4.9786e-01 -3.7977e+04  0:00:27   38
 temperature limited to 1.000000e+00 in 185 cells on zone 14524 in domain 1
  temperature limited to 5.000000e+03 in 3 cells on zone 14524 in domain 1
 
 absolute pressure limited to 5.000000e+10 in 120381 cells on zone 14524 

 turbulent viscosity limited to viscosity ratio of 1.000000e+05 in 111170 cells 

  iter  continuity  x-velocity  y-velocity  z-velocity      energy           k       omega  report-def     time/iter
   463  7.7249e+10  1.5519e-02  4.2284e-02  3.8409e-02  1.8449e-02  9.9347e-01  4.9614e-01 -4.1243e+04  0:00:26   37
 temperature limited to 1.000000e+00 in 193 cells on zone 14524 in domain 1
 
 absolute pressure limited to 5.000000e+10 in 120383 cells on zone 14524 

 turbulent viscosity limited to viscosity ratio of 1.000000e+05 in 110831 cells 
   464  7.7162e+10  1.5528e-02  4.2360e-02  3.7847e-02  1.6679e-02  9.7969e-01  4.9068e-01 -3.7295e+04  0:00:26   36
 temperature limited to 1.000000e+00 in 193 cells on zone 14524 in domain 1
 
 absolute pressure limited to 5.000000e+10 in 120397 cells on zone 14524 

 turbulent viscosity limited to viscosity ratio of 1.000000e+05 in 111264 cells 
   465  8.1467e+10  1.5079e-02  4.1110e-02  3.4377e-02  1.8105e-02  9.3260e-01  4.7940e-01 -3.7829e+04  0:00:25   35
 temperature limited to 1.000000e+00 in 244 cells on zone 14524 in domain 1
 
 absolute pressure limited to 5.000000e+10 in 120394 cells on zone 14524 

 turbulent viscosity limited to viscosity ratio of 1.000000e+05 in 110843 cells 
   466  8.6626e+10  1.5491e-02  4.2266e-02  3.3792e-02  1.7262e-02  9.8021e-01  4.8253e-01 -3.3486e+04  0:00:24   34
 temperature limited to 1.000000e+00 in 187 cells on zone 14524 in domain 1
 
 absolute pressure limited to 5.000000e+10 in 120388 cells on zone 14524 

 turbulent viscosity limited to viscosity ratio of 1.000000e+05 in 111522 cells 
   467  8.9373e+10  1.5442e-02  4.2112e-02  3.2990e-02  1.5452e-02  9.8225e-01  4.8359e-01 -3.5406e+04  0:00:23   33
 temperature limited to 1.000000e+00 in 304 cells on zone 14524 in domain 1
 
 absolute pressure limited to 5.000000e+10 in 120379 cells on zone 14524 

 turbulent viscosity limited to viscosity ratio of 1.000000e+05 in 110947 cells 
   468  8.8834e+10  1.4380e-02  3.9207e-02  3.1545e-02  1.5599e-02  9.5669e-01  4.7081e-01 -3.1602e+04  0:00:23   32
 temperature limited to 1.000000e+00 in 311 cells on zone 14524 in domain 1
 
 absolute pressure limited to 5.000000e+10 in 120402 cells on zone 14524 

 turbulent viscosity limited to viscosity ratio of 1.000000e+05 in 111399 cells 
   469  8.9441e+10  1.4579e-02  3.9772e-02  2.9483e-02  1.5836e-02  9.9925e-01  4.9934e-01 -3.4434e+04  0:00:22   31
 temperature limited to 1.000000e+00 in 315 cells on zone 14524 in domain 1
 
 absolute pressure limited to 5.000000e+10 in 120378 cells on zone 14524 

 turbulent viscosity limited to viscosity ratio of 1.000000e+05 in 110804 cells 
   470  9.3111e+10  1.4644e-02  3.9942e-02  2.9854e-02  1.7010e-02  9.9660e-01  4.9859e-01 -3.0819e+04  0:00:21   30
 temperature limited to 1.000000e+00 in 313 cells on zone 14524 in domain 1
  temperature limited to 5.000000e+03 in 12 cells on zone 14524 in domain 1
 
 absolute pressure limited to 5.000000e+10 in 120396 cells on zone 14524 

 turbulent viscosity limited to viscosity ratio of 1.000000e+05 in 111071 cells 
   471  9.1122e+10  1.4627e-02  3.9908e-02  3.2303e-02  1.6536e-02  9.9557e-01  4.9761e-01 -3.3350e+04  0:00:20   29
 temperature limited to 1.000000e+00 in 399 cells on zone 14524 in domain 1
  temperature limited to 5.000000e+03 in 58 cells on zone 14524 in domain 1
 
 absolute pressure limited to 5.000000e+10 in 120388 cells on zone 14524 

 turbulent viscosity limited to viscosity ratio of 1.000000e+05 in 110669 cells 
   472  9.5121e+10  1.4863e-02  4.0532e-02  3.4075e-02  1.8397e-02  9.9002e-01  4.9591e-01 -3.4336e+04  0:00:20   28
 temperature limited to 1.000000e+00 in 151 cells on zone 14524 in domain 1
  temperature limited to 5.000000e+03 in 147 cells on zone 14524 in domain 1
 
 absolute pressure limited to 5.000000e+10 in 120405 cells on zone 14524 

 turbulent viscosity limited to viscosity ratio of 1.000000e+05 in 110902 cells 
   473  1.0248e+11  1.5587e-02  4.2541e-02  3.5052e-02  1.6727e-02  9.9597e-01  4.9678e-01 -3.6477e+04  0:00:19   27
 temperature limited to 1.000000e+00 in 442 cells on zone 14524 in domain 1
  temperature limited to 5.000000e+03 in 5 cells on zone 14524 in domain 1
 
 absolute pressure limited to 5.000000e+10 in 120413 cells on zone 14524 

 turbulent viscosity limited to viscosity ratio of 1.000000e+05 in 110565 cells 

  iter  continuity  x-velocity  y-velocity  z-velocity      energy           k       omega  report-def     time/iter
   474  1.0098e+11  1.5622e-02  4.2650e-02  3.5874e-02  1.5713e-02  9.9155e-01  4.9522e-01 -3.3209e+04  0:00:18   26
 temperature limited to 1.000000e+00 in 240 cells on zone 14524 in domain 1
  temperature limited to 5.000000e+03 in 73 cells on zone 14524 in domain 1
 
 absolute pressure limited to 5.000000e+10 in 120394 cells on zone 14524 

 turbulent viscosity limited to viscosity ratio of 1.000000e+05 in 110832 cells 
   475  1.0519e+11  1.6033e-02  4.3774e-02  3.6710e-02  1.8385e-02  9.8545e-01  4.9195e-01 -3.0479e+04  0:00:18   25
 temperature limited to 1.000000e+00 in 791 cells on zone 14524 in domain 1
  temperature limited to 5.000000e+03 in 151 cells on zone 14524 in domain 1
 
 absolute pressure limited to 5.000000e+10 in 120372 cells on zone 14524 

 turbulent viscosity limited to viscosity ratio of 1.000000e+05 in 110505 cells 
   476  1.1442e+11  1.6645e-02  4.5465e-02  3.7694e-02  1.9398e-02  9.8866e-01  4.9068e-01 -2.8618e+04  0:00:17   24
 temperature limited to 1.000000e+00 in 536 cells on zone 14524 in domain 1
  temperature limited to 5.000000e+03 in 147 cells on zone 14524 in domain 1
  temperature limited to 1.000000e+00 on 2 faces

 absolute pressure limited to 5.000000e+10 in 120384 cells on zone 14524 

 turbulent viscosity limited to viscosity ratio of 1.000000e+05 in 110720 cells 
   477  1.1825e+11  1.6976e-02  4.6407e-02  3.7228e-02  1.7599e-02  9.9296e-01  4.9287e-01 -2.9900e+04  0:00:16   23
 temperature limited to 1.000000e+00 in 831 cells on zone 14524 in domain 1
 
 absolute pressure limited to 5.000000e+10 in 120385 cells on zone 14524 

 turbulent viscosity limited to viscosity ratio of 1.000000e+05 in 110509 cells 
   478  1.2441e+11  1.6314e-02  4.4605e-02  3.7777e-02  1.8676e-02  9.8574e-01  4.8974e-01 -3.0179e+04  0:00:15   22
 temperature limited to 1.000000e+00 in 246 cells on zone 14524 in domain 1
  temperature limited to 1.000000e+00 on 2 faces

 absolute pressure limited to 5.000000e+10 in 120356 cells on zone 14524 

 turbulent viscosity limited to viscosity ratio of 1.000000e+05 in 110779 cells 
   479  1.2587e+11  1.6569e-02  4.5290e-02  3.6737e-02  1.8313e-02  9.7698e-01  4.8549e-01 -2.9728e+04  0:00:15   21
 temperature limited to 1.000000e+00 in 686 cells on zone 14524 in domain 1
 
 absolute pressure limited to 5.000000e+10 in 120406 cells on zone 14524 

 turbulent viscosity limited to viscosity ratio of 1.000000e+05 in 110412 cells 
   480  1.3148e+11  1.6475e-02  4.5051e-02  3.6991e-02  1.9329e-02  9.9563e-01  4.9628e-01 -2.7665e+04  0:00:14   20
 temperature limited to 1.000000e+00 in 229 cells on zone 14524 in domain 1
 
 absolute pressure limited to 5.000000e+10 in 120358 cells on zone 14524 

 turbulent viscosity limited to viscosity ratio of 1.000000e+05 in 110575 cells 
   481  1.3898e+11  1.6271e-02  4.4498e-02  3.3339e-02  2.0076e-02  9.9646e-01  4.9710e-01 -2.8949e+04  0:00:13   19
 temperature limited to 1.000000e+00 in 577 cells on zone 14524 in domain 1
 
 absolute pressure limited to 5.000000e+10 in 120410 cells on zone 14524 

 turbulent viscosity limited to viscosity ratio of 1.000000e+05 in 110725 cells 
   482  1.4006e+11  1.6319e-02  4.4628e-02  3.5653e-02  1.7739e-02  9.9023e-01  4.9466e-01 -2.9087e+04  0:00:13   18
 temperature limited to 1.000000e+00 in 227 cells on zone 14524 in domain 1
 
 absolute pressure limited to 5.000000e+10 in 120382 cells on zone 14524 

 turbulent viscosity limited to viscosity ratio of 1.000000e+05 in 111100 cells 
   483  1.4684e+11  1.5850e-02  4.3345e-02  3.3787e-02  1.6843e-02  9.8393e-01  4.9063e-01 -3.1037e+04  0:00:12   17
 temperature limited to 1.000000e+00 in 513 cells on zone 14524 in domain 1
 
 absolute pressure limited to 5.000000e+10 in 120342 cells on zone 14524 

 turbulent viscosity limited to viscosity ratio of 1.000000e+05 in 111259 cells 
   484  1.3994e+11  1.6028e-02  4.3845e-02  3.3050e-02  1.6062e-02  9.8731e-01  4.9115e-01 -3.1107e+04  0:00:11   16
 temperature limited to 1.000000e+00 in 352 cells on zone 14524 in domain 1
 
 absolute pressure limited to 5.000000e+10 in 120416 cells on zone 14524 

 turbulent viscosity limited to viscosity ratio of 1.000000e+05 in 111487 cells 

  iter  continuity  x-velocity  y-velocity  z-velocity      energy           k       omega  report-def     time/iter
   485  1.3841e+11  1.6174e-02  4.4236e-02  3.1342e-02  1.5079e-02  9.8544e-01  4.8925e-01 -3.0820e+04  0:00:11   15
 temperature limited to 1.000000e+00 in 558 cells on zone 14524 in domain 1
 
 absolute pressure limited to 5.000000e+10 in 120387 cells on zone 14524 

 turbulent viscosity limited to viscosity ratio of 1.000000e+05 in 111486 cells 
   486  1.5359e+11  1.5852e-02  4.3354e-02  3.1931e-02  1.7070e-02  9.8795e-01  4.8946e-01 -3.0055e+04  0:00:10   14
 temperature limited to 1.000000e+00 in 961 cells on zone 14524 in domain 1
 
 absolute pressure limited to 5.000000e+10 in 120367 cells on zone 14524 

 turbulent viscosity limited to viscosity ratio of 1.000000e+05 in 111722 cells 
   487  1.5470e+11  1.5932e-02  4.3595e-02  3.4160e-02  1.5725e-02  9.6598e-01  4.7957e-01 -2.8548e+04  0:00:09   13
 temperature limited to 1.000000e+00 in 769 cells on zone 14524 in domain 1
 
 absolute pressure limited to 5.000000e+10 in 120392 cells on zone 14524 

 turbulent viscosity limited to viscosity ratio of 1.000000e+05 in 111807 cells 
   488  1.5260e+11  1.5244e-02  4.1680e-02  3.3445e-02  1.5787e-02  9.6261e-01  4.7430e-01 -2.7112e+04  0:00:08   12
 temperature limited to 1.000000e+00 in 1410 cells on zone 14524 in domain 1
 
 absolute pressure limited to 5.000000e+10 in 120419 cells on zone 14524 

 turbulent viscosity limited to viscosity ratio of 1.000000e+05 in 111417 cells 
   489  1.6060e+11  1.5316e-02  4.1876e-02  3.4757e-02  1.3679e-02  9.8735e-01  4.8963e-01 -2.7990e+04  0:00:08   11
 temperature limited to 1.000000e+00 in 1716 cells on zone 14524 in domain 1
 
 absolute pressure limited to 5.000000e+10 in 120362 cells on zone 14524 

 turbulent viscosity limited to viscosity ratio of 1.000000e+05 in 111650 cells 
   490  1.6012e+11  1.4734e-02  4.0306e-02  3.4493e-02  1.2711e-02  9.9580e-01  4.9656e-01 -2.6171e+04  0:00:07   10
 temperature limited to 1.000000e+00 in 1311 cells on zone 14524 in domain 1
 
 absolute pressure limited to 5.000000e+10 in 120383 cells on zone 14524 

 turbulent viscosity limited to viscosity ratio of 1.000000e+05 in 112005 cells 
   491  1.5453e+11  1.4740e-02  4.0303e-02  3.4601e-02  1.2723e-02  9.7734e-01  4.9234e-01 -2.6045e+04  0:00:06    9
 temperature limited to 1.000000e+00 in 1578 cells on zone 14524 in domain 1
 
 absolute pressure limited to 5.000000e+10 in 120387 cells on zone 14524 

 turbulent viscosity limited to viscosity ratio of 1.000000e+05 in 112386 cells 
   492  1.6285e+11  1.4392e-02  3.9329e-02  3.6395e-02  1.4259e-02  9.9128e-01  4.9396e-01 -2.5514e+04  0:00:06    8
 temperature limited to 1.000000e+00 in 2343 cells on zone 14524 in domain 1
 
 absolute pressure limited to 5.000000e+10 in 120392 cells on zone 14524 

 turbulent viscosity limited to viscosity ratio of 1.000000e+05 in 112646 cells 
   493  1.6884e+11  1.4860e-02  4.0627e-02  3.4910e-02  1.3426e-02  9.8862e-01  4.9259e-01 -2.4959e+04  0:00:05    7
 temperature limited to 1.000000e+00 in 2019 cells on zone 14524 in domain 1
 
 absolute pressure limited to 5.000000e+10 in 120365 cells on zone 14524 

 turbulent viscosity limited to viscosity ratio of 1.000000e+05 in 112130 cells 
   494  1.6285e+11  1.4478e-02  3.9591e-02  3.5520e-02  1.3636e-02  9.9112e-01  4.9280e-01 -2.3348e+04  0:00:04    6
 temperature limited to 1.000000e+00 in 3055 cells on zone 14524 in domain 1
 
 absolute pressure limited to 5.000000e+10 in 120369 cells on zone 14524 

 turbulent viscosity limited to viscosity ratio of 1.000000e+05 in 112146 cells 
   495  1.6153e+11  1.4286e-02  3.9062e-02  3.6724e-02  1.3830e-02  9.9840e-01  4.9852e-01 -2.3067e+04  0:00:04    5
 temperature limited to 1.000000e+00 in 4226 cells on zone 14524 in domain 1
 
 absolute pressure limited to 5.000000e+10 in 120377 cells on zone 14524 

 turbulent viscosity limited to viscosity ratio of 1.000000e+05 in 112074 cells 

  iter  continuity  x-velocity  y-velocity  z-velocity      energy           k       omega  report-def     time/iter
   496  1.6636e+11  1.4415e-02  3.9410e-02  3.6814e-02  1.5318e-02  9.9304e-01  4.9703e-01 -2.3033e+04  0:00:03    4
 temperature limited to 1.000000e+00 in 4663 cells on zone 14524 in domain 1
 
 absolute pressure limited to 5.000000e+10 in 120376 cells on zone 14524 

 turbulent viscosity limited to viscosity ratio of 1.000000e+05 in 112094 cells 
   497  1.7212e+11  1.5594e-02  4.2645e-02  3.7258e-02  1.6377e-02  9.7797e-01  4.9304e-01 -2.4276e+04  0:00:02    3
 temperature limited to 1.000000e+00 in 2889 cells on zone 14524 in domain 1
 
 absolute pressure limited to 5.000000e+10 in 120381 cells on zone 14524 

 turbulent viscosity limited to viscosity ratio of 1.000000e+05 in 112016 cells 
   498  1.7880e+11  1.6160e-02  4.4229e-02  3.7167e-02  1.5982e-02  9.8464e-01  4.8899e-01 -2.4532e+04  0:00:01    2
 temperature limited to 1.000000e+00 in 6069 cells on zone 14524 in domain 1
 
 absolute pressure limited to 5.000000e+10 in 120383 cells on zone 14524 

 turbulent viscosity limited to viscosity ratio of 1.000000e+05 in 111791 cells 
   499  1.8827e+11  1.6001e-02  4.3790e-02  3.4475e-02  1.5583e-02  9.7482e-01  4.8368e-01 -2.5720e+04  0:00:01    1
 temperature limited to 1.000000e+00 in 5395 cells on zone 14524 in domain 1
 
 absolute pressure limited to 5.000000e+10 in 120368 cells on zone 14524 

 turbulent viscosity limited to viscosity ratio of 1.000000e+05 in 111667 cells 
   500  1.9118e+11  1.5584e-02  4.2659e-02  3.4811e-02  1.5481e-02  9.9374e-01  4.9426e-01 -2.4980e+04  0:00:00    0

> Halting due to end of file on input.
Auto-Transcript Stop Time:  19:32:17, 06 Nov 2024 
Total Transcript Time: 6 Minute 18 Second.

Automatic transcript closed.
