/opt/crc/a/ansys/2024R1/v241/fluent/fluent24.1.0/bin/fluent -r24.1.0 3ddp -t4 -g
/opt/crc/a/ansys/2024R1/v241/fluent/fluent24.1.0/cortex/lnamd64/cortex.24.1.0 -f fluent -g (fluent "3ddp -pshmem  -host -r24.1.0 -t4 -mpi=intel -path/opt/crc/a/ansys/2024R1/v241/fluent -ssh")

Opening input/output transcript to file "/tmp/927517.1.long/worker-241760-1362664/task.67/fluent-20241106-192639-1388687.trn".
Auto-Transcript Start Time:  19:26:39, 06 Nov 2024 
/opt/crc/a/ansys/2024R1/v241/fluent/fluent24.1.0/bin/fluent -r24.1.0 3ddp -pshmem -host -t4 -mpi=intel -path/opt/crc/a/ansys/2024R1/v241/fluent -ssh -cx d32cepyc220.crc.nd.edu:35109:44935
Starting /opt/crc/a/ansys/2024R1/v241/fluent/fluent24.1.0/lnamd64/3ddp_host/fluent.24.1.0 host -cx d32cepyc220.crc.nd.edu:35109:44935 "(list (rpsetvar (QUOTE parallel/function) "fluent 3ddp -flux -node -r24.1.0 -t4 -pshmem -mpi=intel -ssh") (rpsetvar (QUOTE parallel/rhost) "") (rpsetvar (QUOTE parallel/ruser) "") (rpsetvar (QUOTE parallel/nprocs_string) "4") (rpsetvar (QUOTE parallel/auto-spawn?) #t) (rpsetvar (QUOTE parallel/trace-level) 0) (rpsetvar (QUOTE parallel/remote-shell) 1) (rpsetvar (QUOTE parallel/path) "/opt/crc/a/ansys/2024R1/v241/fluent") (rpsetvar (QUOTE parallel/hostsfile) "") (rpsetvar (QUOTE gpuapp/devices) ""))"

              Welcome to ANSYS Fluent 2024 R1

              Copyright 1987-2024 ANSYS, Inc. All Rights Reserved.
              Unauthorized use, distribution or duplication is prohibited.
              This product is subject to U.S. laws governing export and re-export.
              For full Legal Notice, see documentation.

Build Time: Nov 22 2023 10:07:25 EST  Build Id: 10184  
 
Connected License Server List:	7504@linux5-lic.crc.nd.edu

     --------------------------------------------------------------
     This is an academic version of ANSYS FLUENT. Usage of this product
     license is limited to the terms and conditions specified in your ANSYS
     license form, additional terms section.
     --------------------------------------------------------------
Host spawning Node 0 on machine "d32cepyc220.crc.nd.edu" (unix).
/opt/crc/a/ansys/2024R1/v241/fluent/fluent24.1.0/bin/fluent -r24.1.0 3ddp -flux -node -t4 -pshmem -mpi=intel -ssh -mport 10.32.91.207:10.32.91.207:35129:0
Starting /opt/crc/a/ansys/2024R1/v241/fluent/fluent24.1.0/multiport/mpi/lnamd64/intel2021/bin/mpirun --rsh=ssh -f /tmp/fluent-appfile.etracey.1389104 -genv I_MPI_FABRICS shm -genv FLUENT_ARCH lnamd64 -genv I_MPI_DEBUG 0 -genv I_MPI_ADJUST_GATHERV 3 -genv I_MPI_ADJUST_ALLREDUCE 2 -genv I_MPI_PLATFORM auto -genv PYTHONHOME /opt/crc/a/ansys/2024R1/v241/fluent/fluent24.1.0/../../commonfiles/CPython/3_10/linx64/Release/python -genv FLUENT_PROD_DIR /opt/crc/a/ansys/2024R1/v241/fluent/fluent24.1.0 -genv FLUENT_AFFINITY 0 -genv I_MPI_PIN enable -genv KMP_AFFINITY disabled -n 4 /opt/crc/a/ansys/2024R1/v241/fluent/fluent24.1.0/lnamd64/3ddp_node/fluent_mpi.24.1.0 node -mpiw intel -pic shmem -mport 10.32.91.207:10.32.91.207:35129:0

------------------------------------------------------------------------------------
ID    Hostname              Core  O.S.      PID              Vendor                
------------------------------------------------------------------------------------
n0-3  d32cepyc220.crc.nd.e  4/64  Linux-64  1389158-1389161  AMD EPYC 7543 32-Core 
host  d32cepyc220.crc.nd.e        Linux-64  1388899          AMD EPYC 7543 32-Core 

MPI Option Selected: intel
Selected system interconnect: shared-memory
------------------------------------------------------------------------------------


Initializing SGE
Done.
Cleanup script file is /tmp/927517.1.long/worker-241760-1362664/task.67/cleanup-fluent-d32cepyc220.crc.nd.edu-1388899.sh
Key Behavioral Changes:
Fluent Guided Meshing Workflows: 
Workflow template files (.wft) are now saved by default whenever the mesh is saved. You can change the automatic creation of .wft files in Preferences. 
Journaling: 
When Ansys Fluent encounters an invalid input in a journal file that is being replayed, it now raises an error condition and aborts the journal processing. 
Turbulence: 
The value of kappa used in the Spalart-Allmaras model for interior terms was inconsistent with the reference publications of the model. Fluent historically used a value of 0.4187, but to produce results consistent with the published model, the value should be 0.41. This issue was first addressed in a previous Fluent version and access to the kappa value was given in the GUI while keeping the old default of 0.4187. In Fluent 2024 R1, the default value is now changed to 0.41. 
Turbomachinery: 
For Blade Film Cooling, you can now specify stationary holes on the surfaces of a moving/rotating cell zone in transient cases. 
Boundaries previously referred to as "casings" in the Turbo Topology definition are now referred to as "shrouds." 
Density-Based Solver: 
The High Speed Numerics have been updated to increase the robustness of the Roe-FDS numerical flux against shock-instabilities and the carbuncle phenomenon. This modification may produce a slight solution change for cases combining Roe-FDS and HSN. 
Multiphase Models: 
Modeling of open channel flows in conjunction with the translation moving reference frame (MRF) has been improved resulting in more accurate and stable solution. In addition, a solution methodology has been suggested to provide better stability for high-speed hull simulations. 
Parallel Processing: 
Using dynamic process spawning now requires that you manually specify the interconnect as -pethernet for shared memory or distributed memory without InfiniBand, and -pib.ofed for distributed memory over InfiniBand. 
Refer to the Ansys, Inc. Release Notes for a full listing of the new features included in Ansys Fluent 2024 R1. 
 +------------------------------------------------------------------+
 |                    ANSYS Product Improvement                     |
 |                                                                  |
 |   ANSYS Product Improvement Program helps improve ANSYS          |
 |   products. Participating in this program is like filling out a  |
 |   survey. Without interrupting your work, the software reports   |
 |   anonymous usage information such as errors, machine and        |
 |   solver statistics, features used, etc. to ANSYS. We never      |
 |   use the data to identify or contact you.                       |
 |   The data does NOT contain:                                     |
 |   - Any personally identifiable information including names,     |
 |     IP addresses, file names, part names, etc.                   |
 |   - Any information about your geometry or design specific       |
 |     inputs.                                                      |
 |   You can stop participation at any time. To change your         |
 |   selection go to Help >> ANSYS Product Improvement Program      |
 |   in the GUI.                                                    |
 |   For more information about the ANSYS Privacy Policy, please    |
 |   check: http://www.ansys.com/privacy                            |
 |                                                                  |
 +------------------------------------------------------------------+

> Fast-loading "/opt/crc/a/ansys/2024R1/v241/fluent/fluent24.1.0/addons/afd/lib/hdfio.bin"
Done.
WARNING: Rank:0 Machine d32cepyc220.crc.nd.edu has 63 % of RAM filled with file buffer caches.
This can cause potential performance issues. Please use -cflush flag to flush the cache. 


Reading from d32cepyc220.crc.nd.edu:"/tmp/927517.1.long/worker-241760-1362664/task.67/case.cas.h5" in NODE0 mode ...
  Reading mesh ...
      120642 cells,     1 cell zone  ...
         120642 polyhedra cells,  zone id: 14524
      689887 faces,     7 face zones ...
           5762 polygonal symmetry faces,  zone id: 41
           5844 polygonal symmetry faces,  zone id: 42
            464 polygonal pressure-far-field faces,  zone id: 43
            458 polygonal pressure-far-field faces,  zone id: 44
           1892 polygonal pressure-far-field faces,  zone id: 45
          13363 polygonal wall faces,  zone id: 46
         662104 polygonal interior faces,  zone id: 14523
      501605 nodes,     1 node zone  ...
  Done.


Building...
     mesh
	auto partitioning mesh by Metis (fast),
	distributing mesh
		parts....,
		faces....,
		nodes....,
		cells....,
        bandwidth reduction using Reverse Cuthill-McKee: 30663/2131 = 14.389
  Reading boundary layer flags ...
  Done.

     materials,
     interface,
     domains,
	mixture
     zones,
	symmetry1
	symmetry2
	inlet
	outlet
	farfield
	launchvehicle
	interior--flowfield
	flowfield
     parallel,
Done.

> adjoint/                parallel/               server/
define/                 parametric-study/       solve/
display/                plot/                   surface/
exit                    preferences/            turbo-workflow/
file/                   print-license-usage     views/
mesh/                   report/

> 
> adjoint/                parallel/               server/
define/                 parametric-study/       solve/
display/                plot/                   surface/
exit                    preferences/            turbo-workflow/
file/                   print-license-usage     views/
mesh/                   report/

> 
> adjoint/                parallel/               server/
define/                 parametric-study/       solve/
display/                plot/                   surface/
exit                    preferences/            turbo-workflow/
file/                   print-license-usage     views/
mesh/                   report/

> air is a fluid

Density
no data required.


> adjoint/                parallel/               server/
define/                 parametric-study/       solve/
display/                plot/                   surface/
exit                    preferences/            turbo-workflow/
file/                   print-license-usage     views/
mesh/                   report/

> (farfield outlet inlet)

> (farfield outlet inlet)

> (farfield outlet inlet)

> adjoint/                parallel/               server/
define/                 parametric-study/       solve/
display/                plot/                   surface/
exit                    preferences/            turbo-workflow/
file/                   print-license-usage     views/
mesh/                   report/

> (launchvehicle)

> adjoint/                parallel/               server/
define/                 parametric-study/       solve/
display/                plot/                   surface/
exit                    preferences/            turbo-workflow/
file/                   print-license-usage     views/
mesh/                   report/

> 
> 
> 
> 
> 
> 
> adjoint/                parallel/               server/
define/                 parametric-study/       solve/
display/                plot/                   surface/
exit                    preferences/            turbo-workflow/
file/                   print-license-usage     views/
mesh/                   report/

> 
> 
> 
> adjoint/                parallel/               server/
define/                 parametric-study/       solve/
display/                plot/                   surface/
exit                    preferences/            turbo-workflow/
file/                   print-license-usage     views/
mesh/                   report/

> 
> 
> 
> adjoint/                parallel/               server/
define/                 parametric-study/       solve/
display/                plot/                   surface/
exit                    preferences/            turbo-workflow/
file/                   print-license-usage     views/
mesh/                   report/

> 
> adjoint/                parallel/               server/
define/                 parametric-study/       solve/
display/                plot/                   surface/
exit                    preferences/            turbo-workflow/
file/                   print-license-usage     views/
mesh/                   report/

> 
Initialize using the hybrid initialization method.

Checking case topology... 
-This case has multiple farfield bc 
-Case will be initialized with constant parameters

	iter		scalar-0

	1		1.000000e+00
	2		5.768570e-04
	3		7.971279e-05
	4		1.081202e-05
	5		2.218913e-06
	6		4.815882e-07
	7		1.078634e-07
	8		2.565151e-08
	9		7.216994e-09
	10		2.559073e-09

Hybrid initialization is done.

Note: Settings to improve the robustness of pathline and
      particle tracking have been automatically enabled.


> 
  iter  continuity  x-velocity  y-velocity  z-velocity      energy           k       omega  report-def     time/iter
     1  1.0000e+00  3.4103e-04  3.9245e-04  5.8117e-04  4.0459e-06  9.5534e-01  4.8761e-01  4.6023e+00  0:06:12  499
     2  1.0000e+00  5.6844e-04  1.1253e-03  5.0762e-04  1.3978e-05  9.2405e-01  4.7958e-01  6.4856e+00  0:06:17  498
     3  1.0000e+00  6.8043e-04  1.6150e-03  8.9430e-04  2.0507e-05  8.5963e-01  4.6775e-01  6.5032e+00  0:06:20  497
     4  1.0000e+00  1.0523e-03  3.2263e-03  6.4086e-04  2.7591e-05  8.1328e-01  4.4279e-01  6.3721e+00  0:06:27  496
     5  1.0000e+00  1.3966e-03  5.1975e-03  2.0294e-03  2.3876e-04  8.9073e-01  4.1577e-01  5.8399e+00  0:06:29  495
     6  1.5517e+00  4.7866e-03  1.2960e-02  2.3198e-03  1.4977e-04  7.3965e-01  3.7494e-01  5.6916e+00  0:06:28  494
     7  2.0894e+00  5.6648e-03  8.7932e-03  2.3855e-03  5.1675e-04  9.1421e-01  3.7457e-01  5.9306e+00  0:06:28  493
     8  2.2911e+00  1.1696e-02  1.8339e-02  3.2509e-03  3.5077e-04  7.4778e-01  3.6443e-01  5.6057e+00  0:06:31  492
     9  2.6133e+00  1.1927e-02  1.2787e-02  3.5157e-03  4.0043e-04  7.2118e-01  3.1498e-01  5.8353e+00  0:06:32  491
    10  2.4868e+00  1.3705e-02  2.0520e-02  3.5042e-03  6.6307e-04  7.1492e-01  3.7254e-01  4.8560e+00  0:06:39  490
    11  3.5732e+00  2.6175e-02  2.1648e-02  6.3479e-03  8.9798e-04  9.7157e-01  4.6705e-01  4.9220e+00  0:06:39  489

  iter  continuity  x-velocity  y-velocity  z-velocity      energy           k       omega  report-def     time/iter
    12  2.9990e+00  1.7591e-02  3.0626e-02  4.4778e-03  8.6964e-04  8.1907e-01  4.4149e-01  3.6373e+00  0:06:38  488
    13  3.8160e+00  3.2139e-02  2.8523e-02  8.5648e-03  1.0724e-03  9.1101e-01  4.4721e-01  4.2775e+00  0:06:47  487
    14  3.3893e+00  1.9316e-02  3.9333e-02  6.5357e-03  1.0798e-03  7.7163e-01  4.2451e-01  2.7710e+00  0:06:53  486
    15  4.2841e+00  4.1962e-02  3.8574e-02  1.0618e-02  1.3809e-03  1.0964e+00  5.1958e-01  3.0671e+00  0:06:49  485
    16  3.6921e+00  2.5139e-02  4.2792e-02  8.8907e-03  1.2507e-03  8.2962e-01  4.5563e-01  1.7559e+00  0:06:43  484
    17  4.8188e+00  5.1407e-02  4.6668e-02  1.3485e-02  3.3283e-03  9.9465e-01  5.2500e-01  2.9584e+00  0:06:39  483
    18  4.0858e+00  2.4474e-02  6.1310e-02  1.3399e-02  1.9993e-03  7.9783e-01  4.3901e-01  1.6595e+00  0:06:37  482
    19  5.0764e+00  5.6285e-02  6.4436e-02  1.5967e-02  3.2749e-03  1.4637e+00  8.5986e-01  1.2173e+00  0:06:33  481
    20  4.7095e+00  3.9041e-02  6.6254e-02  1.6630e-02  1.9556e-03  8.9631e-01  4.6468e-01 -8.6013e-01  0:06:30  480
    21  5.0677e+00  5.5429e-02  6.3331e-02  1.8799e-02  5.0344e-03  1.0783e+00  5.7210e-01 -1.2413e+00  0:06:30  479
    22  5.2441e+00  4.8579e-02  8.6370e-02  2.2747e-02  2.3455e-03  9.1384e-01  4.7754e-01 -9.9810e-01  0:06:33  478

  iter  continuity  x-velocity  y-velocity  z-velocity      energy           k       omega  report-def     time/iter
    23  5.6155e+00  7.1759e-02  7.0666e-02  2.1680e-02  3.1454e-03  1.2510e+00  6.6364e-01 -7.2994e-01  0:06:32  477
    24  5.3379e+00  6.0383e-02  9.4526e-02  2.5278e-02  3.0891e-03  9.1923e-01  4.7743e-01 -1.9033e+00  0:06:30  476
    25  5.8527e+00  7.5660e-02  8.8951e-02  2.3929e-02  4.0217e-03  9.9348e-01  5.1905e-01 -2.0818e+00  0:06:29  475
    26  6.0798e+00  6.9596e-02  8.9176e-02  2.5929e-02  3.7122e-03  8.3797e-01  4.8651e-01 -2.4266e+00  0:06:26  474
    27  6.3021e+00  9.4847e-02  7.9604e-02  2.6132e-02  5.6458e-03  1.0078e+00  5.7550e-01 -1.5876e+00  0:06:25  473
    28  6.4026e+00  7.4216e-02  9.6185e-02  2.5940e-02  5.3686e-03  1.0034e+00  5.3889e-01 -1.4888e+00  0:06:24  472
    29  6.9216e+00  9.8509e-02  8.3325e-02  2.7316e-02  6.7459e-03  1.0470e+00  5.8487e-01 -2.8572e+00  0:06:28  471
    30  7.0438e+00  8.8313e-02  7.1963e-02  2.4010e-02  6.0284e-03  9.6813e-01  4.9893e-01 -2.6991e+00  0:06:38  470
    31  7.3039e+00  1.0010e-01  8.1622e-02  2.8121e-02  7.4753e-03  9.8928e-01  5.2498e-01 -2.1111e+00  0:06:34  469
    32  7.1376e+00  8.4388e-02  9.2318e-02  2.6899e-02  6.8255e-03  1.0382e+00  5.4119e-01 -2.5321e+00  0:06:31  468
    33  7.7328e+00  1.0473e-01  8.5202e-02  3.1289e-02  6.6845e-03  9.8832e-01  5.1938e-01 -2.2433e+00  0:06:27  467

  iter  continuity  x-velocity  y-velocity  z-velocity      energy           k       omega  report-def     time/iter
    34  7.6534e+00  9.5986e-02  8.0421e-02  2.6243e-02  6.7731e-03  9.9291e-01  5.2922e-01 -2.1068e+00  0:06:24  466
    35  7.7253e+00  9.1259e-02  9.5172e-02  2.7191e-02  6.6937e-03  1.0064e+00  5.4017e-01 -1.9363e+00  0:06:25  465
    36  7.7890e+00  1.0408e-01  9.2362e-02  2.9082e-02  7.7826e-03  9.7478e-01  5.0254e-01 -1.7293e+00  0:06:22  464
    37  7.8893e+00  1.0052e-01  8.1533e-02  2.6161e-02  6.9808e-03  1.0380e+00  5.3670e-01 -1.9689e+00  0:06:18  463
    38  8.2569e+00  1.0219e-01  8.9930e-02  2.6611e-02  9.4166e-03  1.0856e+00  5.7391e-01  7.7553e-02  0:06:16  462
    39  8.3160e+00  9.1472e-02  1.0278e-01  2.9384e-02  1.1442e-02  9.7975e-01  5.1071e-01 -5.4976e-01  0:06:13  461
    40  8.3072e+00  1.1798e-01  7.8432e-02  2.4841e-02  9.3524e-03  1.1029e+00  5.8521e-01 -9.0851e-01  0:06:11  460
    41  8.8614e+00  9.5955e-02  1.0277e-01  2.8556e-02  1.0827e-02  9.9268e-01  5.1999e-01 -9.0591e-01  0:06:09  459
    42  8.9183e+00  1.1046e-01  8.5257e-02  2.5647e-02  1.0001e-02  9.6875e-01  5.0180e-01 -7.2382e-01  0:06:07  458
    43  9.6097e+00  1.1033e-01  1.1175e-01  3.0514e-02  1.5593e-02  1.0616e+00  5.4700e-01 -6.3047e-01  0:06:06  457
    44  9.6898e+00  1.2616e-01  8.3453e-02  2.8492e-02  1.2183e-02  9.6414e-01  4.9440e-01 -3.9767e-01  0:06:06  456

  iter  continuity  x-velocity  y-velocity  z-velocity      energy           k       omega  report-def     time/iter
    45  1.0357e+01  1.2047e-01  9.6480e-02  3.1705e-02  1.3063e-02  1.1709e+00  6.0092e-01 -5.4368e-01  0:06:08  455
    46  9.9302e+00  1.0642e-01  9.5684e-02  2.9188e-02  1.0583e-02  9.9999e-01  5.1056e-01 -3.0715e-01  0:06:12  454
    47  1.0634e+01  1.1303e-01  1.0878e-01  3.1949e-02  6.0634e-02  1.0037e+00  5.1493e-01 -1.2477e+00  0:06:10  453
    48  1.1109e+01  1.6008e-01  8.2742e-02  2.9113e-02  1.2249e-01  1.0234e+00  5.3190e-01 -1.3993e+00  0:06:09  452
    49  1.2574e+01  1.4863e-01  1.2380e-01  2.5850e-02  3.3955e-02  9.7938e-01  5.0388e-01 -1.7308e-01  0:06:16  451
    50  1.2100e+01  1.2320e-01  8.3165e-02  2.4795e-02  1.6482e-02  1.0378e+00  5.4119e-01 -1.4261e+00  0:06:16  450
    51  1.2424e+01  1.1429e-01  8.7364e-02  2.8207e-02  1.2930e-02  9.7396e-01  4.9965e-01  7.2603e-01  0:06:14  449
    52  1.2458e+01  1.1255e-01  9.1320e-02  3.0536e-02  1.6977e-02  1.0631e+00  5.3497e-01  3.3473e-03  0:06:09  448
    53  1.4000e+01  1.2295e-01  8.6128e-02  3.3158e-02  1.3865e-02  9.9188e-01  5.2010e-01 -1.2482e-01  0:06:06  447
    54  1.3524e+01  1.1183e-01  8.7846e-02  3.0405e-02  1.1364e-02  9.7905e-01  5.2055e-01 -1.9984e+00  0:06:03  446
    55  1.3390e+01  9.8450e-02  9.0778e-02  2.7975e-02  1.1474e-02  1.1046e+00  5.9574e-01 -1.5843e+00  0:06:00  445

  iter  continuity  x-velocity  y-velocity  z-velocity      energy           k       omega  report-def     time/iter
    56  1.3660e+01  1.0326e-01  9.0271e-02  2.9162e-02  1.3236e-02  1.0303e+00  5.3443e-01 -1.7292e+00  0:06:09  444
    57  1.4572e+01  1.0438e-01  8.5145e-02  2.9312e-02  1.5847e-02  1.0006e+00  5.1578e-01 -6.9082e-01  0:06:06  443
    58  1.4470e+01  9.2022e-02  9.1430e-02  2.7441e-02  1.8181e-02  1.0021e+00  5.2780e-01 -1.5281e+00  0:06:03  442
    59  1.5679e+01  1.1967e-01  9.4532e-02  3.2640e-02  1.5093e-02  1.0459e+00  5.4458e-01 -1.1648e+00  0:05:59  441
    60  1.5192e+01  9.9775e-02  9.0026e-02  2.9795e-02  1.1940e-02  1.0061e+00  5.1909e-01 -1.3797e+00  0:05:56  440
    61  1.6321e+01  1.0819e-01  9.9799e-02  3.3242e-02  1.9711e-02  1.0589e+00  5.5290e-01 -5.0605e-01  0:05:54  439
    62  1.6738e+01  1.0250e-01  8.0834e-02  2.8818e-02  1.5017e-02  9.9203e-01  5.2106e-01  1.4262e+00  0:05:52  438
    63  1.7131e+01  9.2118e-02  9.9615e-02  2.8366e-02  1.6260e-02  1.0892e+00  5.8217e-01  1.6747e+00  0:06:01  437
    64  1.6650e+01  1.0251e-01  8.4935e-02  2.9390e-02  1.5992e-02  1.0068e+00  5.1863e-01  2.8691e-02  0:05:58  436
    65  1.7752e+01  1.0592e-01  9.8333e-02  3.2017e-02  1.4590e-02  1.0229e+00  5.2635e-01 -2.7598e-01  0:05:57  435
    66  1.9284e+01  1.0528e-01  1.0352e-01  3.3293e-02  1.6441e-02  1.0289e+00  5.3480e-01  2.5892e+00  0:05:55  434

  iter  continuity  x-velocity  y-velocity  z-velocity      energy           k       omega  report-def     time/iter
    67  1.9102e+01  1.0105e-01  8.7370e-02  3.0750e-02  1.7734e-02  9.9041e-01  5.1148e-01  5.6438e+00  0:05:52  433
    68  1.8967e+01  9.2215e-02  9.1721e-02  2.8376e-02  1.6884e-02  1.0404e+00  5.3669e-01  2.3608e+00  0:05:50  432
    69  1.9506e+01  1.0367e-01  8.8657e-02  2.9847e-02  2.4211e-02  1.0459e+00  5.4129e-01  8.1765e-01  0:05:48  431
    70  2.0884e+01  9.5377e-02  8.6351e-02  2.8426e-02  1.7624e-02  1.0239e+00  5.3616e-01  1.9488e+00  0:05:47  430
    71  2.1898e+01  8.6194e-02  8.8287e-02  2.7638e-02  2.3804e-02  1.0274e+00  5.3667e-01  5.9872e+00  0:05:46  429
    72  2.1566e+01  9.2734e-02  7.6803e-02  2.7301e-02  2.4615e-02  1.0065e+00  5.1941e-01 -1.1053e+00  0:05:45  428
    73  2.2695e+01  8.7923e-02  1.0287e-01  2.8572e-02  2.3137e-02  1.0874e+00  5.5587e-01 -1.5384e+00  0:05:44  427
    74  2.3657e+01  9.6863e-02  9.0116e-02  2.8246e-02  2.0060e-02  1.0092e+00  5.1986e-01  3.6683e-03  0:05:43  426
    75  2.4859e+01  8.7313e-02  8.5491e-02  2.8532e-02  2.8361e-02  1.0709e+00  5.5148e-01  3.2218e+00  0:05:42  425
    76  2.4152e+01  8.7440e-02  7.8056e-02  2.6363e-02  2.5705e-02  1.0105e+00  5.2504e-01  1.3241e-01  0:05:44  424
    77  2.6210e+01  1.0008e-01  9.0379e-02  3.1445e-02  2.3461e-02  1.1020e+00  5.7576e-01  2.5553e+00  0:05:46  423

  iter  continuity  x-velocity  y-velocity  z-velocity      energy           k       omega  report-def     time/iter
    78  2.6412e+01  8.7929e-02  8.5004e-02  2.8575e-02  2.3628e-02  1.0225e+00  5.2903e-01  2.2600e+00  0:05:45  422
    79  2.7472e+01  1.0210e-01  8.6699e-02  3.1056e-02  2.1784e-02  1.0132e+00  5.2320e-01  6.7105e+00  0:05:45  421
    80  2.6361e+01  8.9361e-02  8.8466e-02  3.0902e-02  2.2217e-02  9.9570e-01  5.1042e-01  4.0926e+00  0:05:42  420
    81  2.8544e+01  9.4265e-02  1.0337e-01  3.0979e-02  2.9495e-02  1.1091e+00  5.6213e-01  8.7090e+00  0:05:39  419
    82  2.7780e+01  7.8608e-02  9.2584e-02  2.9365e-02  2.4466e-02  1.0295e+00  5.2949e-01  9.1756e+00  0:05:40  418
    83  3.1329e+01  1.0329e-01  9.2157e-02  3.2359e-02  2.8485e-02  1.0356e+00  5.3305e-01  1.2997e+01  0:05:38  417
    84  2.8878e+01  7.6002e-02  8.8487e-02  2.7296e-02  2.3586e-02  1.0216e+00  5.3176e-01  9.9977e+00  0:05:35  416
    85  3.2627e+01  9.4576e-02  9.0204e-02  3.0821e-02  3.0417e-02  1.0607e+00  5.4117e-01  1.2042e+01  0:05:33  415
    86  3.0857e+01  8.2429e-02  9.2935e-02  2.9828e-02  2.2017e-02  1.0128e+00  5.1973e-01  9.5440e+00  0:05:32  414
    87  3.4563e+01  9.8736e-02  9.3991e-02  3.4633e-02  2.9819e-02  1.0565e+00  5.4118e-01  1.0442e+01  0:05:31  413
    88  3.2820e+01  8.1425e-02  8.4029e-02  2.9538e-02  3.4942e-02  9.8929e-01  5.0297e-01  7.7458e+00  0:05:31  412

  iter  continuity  x-velocity  y-velocity  z-velocity      energy           k       omega  report-def     time/iter
    89  3.5398e+01  1.0153e-01  9.9741e-02  3.2293e-02  3.0719e-02  1.0808e+00  5.4016e-01  6.4708e+00  0:05:30  411
    90  3.3984e+01  7.8480e-02  9.1629e-02  2.9575e-02  2.6714e-02  1.0198e+00  5.2021e-01  5.9690e+00  0:05:32  410
    91  3.8060e+01  1.0725e-01  8.7351e-02  3.2697e-02  3.4347e-02  1.0425e+00  5.2503e-01  8.5107e+00  0:05:34  409
    92  3.5884e+01  7.4491e-02  7.9303e-02  2.7324e-02  2.6769e-02  1.0510e+00  5.4101e-01  8.7074e+00  0:05:32  408
    93  4.2085e+01  9.7406e-02  9.5099e-02  3.3479e-02  2.7150e-02  1.0310e+00  5.2460e-01  9.5464e+00  0:05:31  407
    94  3.7701e+01  7.5131e-02  9.3081e-02  3.0124e-02  2.9922e-02  1.0414e+00  5.3480e-01  4.3656e+00  0:05:41  406
    95  4.0585e+01  9.8121e-02  9.7005e-02  3.2981e-02  2.7398e-02  1.0345e+00  5.2624e-01  4.6225e+00  0:05:38  405
    96  3.9197e+01  8.0676e-02  8.1957e-02  3.0952e-02  3.1555e-02  1.0249e+00  5.2038e-01  5.0930e+00  0:05:34  404
    97  4.4795e+01  1.0670e-01  1.0053e-01  3.5284e-02  3.4499e-02  1.0685e+00  5.4252e-01  7.2900e+00  0:05:31  403
    98  4.2256e+01  8.3479e-02  9.0678e-02  3.1965e-02  2.9885e-02  1.0100e+00  5.1908e-01  6.2997e+00  0:05:27  402
    99  4.3849e+01  1.0756e-01  8.8959e-02  3.2463e-02  3.2332e-02  1.0648e+00  5.4347e-01  8.1523e+00  0:05:25  401

  iter  continuity  x-velocity  y-velocity  z-velocity      energy           k       omega  report-def     time/iter
   100  4.3166e+01  8.0767e-02  9.1854e-02  3.0802e-02  2.8732e-02  1.0481e+00  5.3811e-01  9.1333e+00  0:05:23  400
   101  4.7419e+01  9.9401e-02  8.3975e-02  3.2102e-02  2.6962e-02  1.0363e+00  5.2756e-01  7.6208e+00  0:05:22  399
   102  4.6107e+01  7.3423e-02  9.5057e-02  3.0694e-02  2.9830e-02  1.0269e+00  5.2684e-01  2.6383e+00  0:05:27  398
   103  5.0080e+01  1.0822e-01  9.4200e-02  3.4348e-02  4.5134e-02  1.0637e+00  5.4000e-01 -2.7335e+00  0:05:25  397
   104  4.7929e+01  8.6604e-02  8.8489e-02  3.1657e-02  3.3882e-02  1.0145e+00  5.1792e-01 -2.2314e+00  0:05:22  396
   105  5.2649e+01  1.1067e-01  9.8304e-02  3.6286e-02  3.2549e-02  1.1158e+00  5.6516e-01  1.6050e+00  0:05:20  395
   106  4.9587e+01  8.8405e-02  9.0674e-02  3.3056e-02  3.3033e-02  1.0092e+00  5.1315e-01  3.7270e+00  0:05:20  394
   107  5.3694e+01  1.1905e-01  9.5236e-02  3.5281e-02  3.1249e-02  1.0383e+00  5.2695e-01  3.7666e+00  0:05:17  393
   108  4.8549e+01  8.7206e-02  9.1541e-02  3.2462e-02  3.0205e-02  1.0167e+00  5.1717e-01  8.5323e-01  0:05:18  392
   109  5.6792e+01  1.2085e-01  1.0006e-01  3.6877e-02  2.5576e-02  1.1071e+00  5.6109e-01  2.6787e+00  0:05:29  391
   110  5.1868e+01  7.6985e-02  9.6095e-02  3.2416e-02  2.8910e-02  9.9797e-01  5.0607e-01  1.3385e+00  0:05:25  390

  iter  continuity  x-velocity  y-velocity  z-velocity      energy           k       omega  report-def     time/iter
   111  5.7929e+01  1.0436e-01  1.0759e-01  3.5104e-02  3.4532e-02  1.1470e+00  5.6448e-01  1.7805e+00  0:05:22  389
   112  5.1851e+01  8.6112e-02  8.9639e-02  3.2496e-02  3.5482e-02  1.0226e+00  5.1914e-01  2.1065e-01  0:05:19  388
   113  6.0484e+01  9.9117e-02  1.1989e-01  3.7968e-02  3.1266e-02  1.0438e+00  5.2810e-01  4.7924e+00  0:05:17  387
   114  5.4544e+01  7.9309e-02  9.8424e-02  3.3261e-02  3.2249e-02  1.0258e+00  5.2255e-01  1.0903e+01  0:05:14  386
   115  6.3361e+01  1.1399e-01  9.9928e-02  3.9865e-02  3.2803e-02  1.0653e+00  5.3839e-01  1.6303e+01  0:05:12  385
   116  5.6663e+01  8.1636e-02  9.1930e-02  3.2000e-02  5.2022e-02  1.0083e+00  5.1321e-01  1.8440e+01  0:05:11  384
   117  6.4443e+01  1.2992e-01  9.2092e-02  3.8559e-02  3.7888e-02  1.0906e+00  5.5071e-01  2.2744e+01  0:05:09  383
   118  5.9543e+01  7.5664e-02  9.7330e-02  3.2343e-02  4.0001e-02  1.0236e+00  5.1966e-01  1.8844e+01  0:05:09  382
   119  6.8574e+01  9.8959e-02  9.9317e-02  3.4642e-02  3.2425e-02  1.0422e+00  5.2745e-01  1.5969e+01  0:05:08  381
   120  5.9794e+01  7.6883e-02  9.1474e-02  3.1866e-02  3.4708e-02  1.0649e+00  5.4262e-01  1.1321e+01  0:05:06  380
   121  7.1769e+01  1.0412e-01  1.0757e-01  3.7895e-02  5.0623e-02  1.0572e+00  5.4042e-01  8.2440e+00  0:05:05  379

  iter  continuity  x-velocity  y-velocity  z-velocity      energy           k       omega  report-def     time/iter
   122  6.3140e+01  8.1534e-02  9.4102e-02  3.2415e-02  2.8540e-02  1.0136e+00  5.1515e-01  1.2084e+00  0:05:08  378
   123  7.3255e+01  1.1547e-01  9.8782e-02  3.9401e-02  4.0347e-02  1.0709e+00  5.3877e-01 -1.7257e+00  0:05:10  377
   124  6.4931e+01  8.2093e-02  9.6644e-02  3.3085e-02  2.8393e-02  1.0148e+00  5.1315e-01 -7.2388e-01  0:05:08  376
   125  7.1453e+01  1.1196e-01  1.0593e-01  4.0968e-02  2.6326e-02  1.0800e+00  5.4299e-01 -1.2512e+00  0:05:07  375
   126  6.3265e+01  7.9806e-02  8.7500e-02  3.1589e-02  2.2331e-02  1.0152e+00  5.1232e-01 -7.6182e+00  0:05:15  374
   127  7.6110e+01  9.8807e-02  1.0709e-01  3.9441e-02  3.2493e-02  1.0423e+00  5.2692e-01 -2.1702e+01  0:05:18  373
   128  6.5539e+01  9.8223e-02  8.0118e-02  3.3301e-02  2.9781e-02  1.0423e+00  5.2484e-01 -7.3537e+00  0:05:16  372
   129  7.3169e+01  1.0621e-01  9.9178e-02  3.7258e-02  7.4455e-02  1.0324e+00  5.2268e-01 -6.1169e+00  0:05:12  371
   130  6.8806e+01  1.1191e-01  8.9103e-02  3.1882e-02  3.4316e-02  1.0330e+00  5.2650e-01 -8.0674e+00  0:05:09  370
   131  7.9602e+01  1.0811e-01  1.0208e-01  3.7371e-02  3.4290e-02  1.0476e+00  5.3015e-01 -2.9137e+00  0:05:06  369
   132  7.0153e+01  9.7260e-02  9.0824e-02  3.4832e-02  4.4532e-02  1.0218e+00  5.1469e-01 -1.2874e+00  0:05:03  368

  iter  continuity  x-velocity  y-velocity  z-velocity      energy           k       omega  report-def     time/iter
   133  7.6013e+01  1.2313e-01  9.4149e-02  3.7815e-02  4.7535e-02  1.0691e+00  5.4264e-01  1.3527e+01  0:05:00  367
   134  6.9523e+01  9.4550e-02  9.3545e-02  3.1887e-02  2.7363e-02  1.0182e+00  5.1499e-01  9.3019e+00  0:05:05  366
   135  8.0999e+01  9.9593e-02  1.0509e-01  3.8246e-02  3.0063e-02  1.0668e+00  5.3816e-01  6.0081e-01  0:05:04  365
   136  7.4896e+01  9.5840e-02  7.8949e-02  3.3662e-02  3.1965e-02  1.0138e+00  5.1233e-01 -1.1338e+00  0:05:01  364
   137  7.7385e+01  8.8120e-02  9.8352e-02  3.2795e-02  3.1838e-02  1.0651e+00  5.3949e-01  1.4023e+01  0:04:58  363
   138  7.5407e+01  9.4302e-02  9.3645e-02  3.6441e-02  3.2148e-02  1.0442e+00  5.3672e-01  1.5722e+01  0:04:56  362
   139  8.1943e+01  1.0002e-01  1.0271e-01  3.9735e-02  4.1407e-02  1.0113e+00  5.1229e-01  1.5839e+01  0:04:53  361
   140  7.8885e+01  9.5855e-02  8.4493e-02  3.2359e-02  3.4324e-02  1.0369e+00  5.2391e-01 -7.2441e-01  0:04:52  360
   141  8.7297e+01  1.1135e-01  9.0764e-02  3.6334e-02  3.3455e-02  1.0316e+00  5.2298e-01 -4.1254e+00  0:04:51  359
   142  7.6361e+01  6.9196e-02  8.9267e-02  2.9803e-02  3.4424e-02  1.0325e+00  5.2140e-01 -1.1211e+01  0:05:03  358
   143  9.1886e+01  1.1720e-01  1.0931e-01  4.1409e-02  3.1038e-02  1.1129e+00  5.6148e-01 -1.3862e+01  0:04:51  357

  iter  continuity  x-velocity  y-velocity  z-velocity      energy           k       omega  report-def     time/iter
   144  8.2321e+01  8.8538e-02  9.0882e-02  3.4322e-02  3.5937e-02  1.0147e+00  5.1579e-01 -2.3193e+01  0:04:49  356
   145  9.0850e+01  8.5785e-02  1.0885e-01  3.2999e-02  3.5866e-02  1.0386e+00  5.2635e-01 -2.7575e+01  0:04:47  355
   146  8.7040e+01  9.2830e-02  8.6415e-02  3.2118e-02  3.4904e-02  1.0441e+00  5.2726e-01 -2.6876e+01  0:04:46  354
   147  8.9607e+01  9.5247e-02  1.0115e-01  3.6070e-02  3.3841e-02  1.0522e+00  5.3551e-01 -2.2408e+01  0:04:44  353
   148  8.3348e+01  8.6929e-02  8.5850e-02  3.5023e-02  2.7890e-02  1.0444e+00  5.2929e-01 -1.9301e+01  0:05:07  352
   149  9.5179e+01  1.0496e-01  9.8848e-02  3.9364e-02  2.9360e-02  1.0226e+00  5.1938e-01 -1.7530e+01  0:04:52  351
   150  8.8107e+01  7.6746e-02  8.8599e-02  3.1832e-02  3.0287e-02  1.0170e+00  5.1487e-01 -2.7357e+01  0:04:37  350
   151  9.9090e+01  1.1828e-01  1.0690e-01  4.0143e-02  4.2747e-02  1.1053e+00  5.5189e-01 -2.4254e+01  0:04:28  349
   152  9.0280e+01  7.9154e-02  1.0113e-01  3.4927e-02  2.7694e-02  1.0210e+00  5.1371e-01 -8.2957e+00  0:04:20  348
   153  9.9436e+01  8.7346e-02  1.0208e-01  3.6046e-02  4.5703e-02  1.0931e+00  5.5240e-01 -7.3428e+00  0:04:24  347
   154  9.8823e+01  9.2118e-02  1.0101e-01  3.5066e-02  4.3955e-02  1.0213e+00  5.1634e-01 -2.1138e+01  0:04:26  346

  iter  continuity  x-velocity  y-velocity  z-velocity      energy           k       omega  report-def     time/iter
   155  1.0228e+02  1.0316e-01  8.8297e-02  3.4399e-02  3.6646e-02  1.0275e+00  5.1859e-01 -9.1355e+00  0:04:27  345
   156  9.7334e+01  9.9764e-02  9.4144e-02  3.5372e-02  3.1016e-02  1.0412e+00  5.2581e-01 -2.6432e+00  0:04:29  344
   157  9.7432e+01  9.7623e-02  8.7792e-02  3.4224e-02  3.2673e-02  1.0298e+00  5.1871e-01  7.1727e+00  0:04:29  343
   158  1.0207e+02  9.2160e-02  9.8787e-02  3.4828e-02  3.5630e-02  1.0917e+00  5.5151e-01 -3.1878e+00  0:04:25  342
   159  1.1219e+02  1.0255e-01  8.5005e-02  3.7897e-02  3.4579e-02  1.0377e+00  5.2161e-01 -1.2453e+01  0:04:33  341
   160  1.0285e+02  8.1184e-02  8.4749e-02  2.9957e-02  3.6330e-02  1.0215e+00  5.1939e-01 -1.8616e+01  0:04:26  340
   161  1.1190e+02  9.7091e-02  1.0005e-01  3.2937e-02  4.1445e-02  1.0859e+00  5.5338e-01 -1.2908e+01  0:04:21  339
   162  1.0644e+02  8.1192e-02  9.4667e-02  3.1918e-02  3.5144e-02  1.0401e+00  5.2736e-01 -2.1699e+01  0:04:31  338
   163  1.1239e+02  9.7903e-02  9.2231e-02  3.8522e-02  4.7729e-02  1.0571e+00  5.3648e-01 -3.2430e+01  0:04:28  337
   164  1.2231e+02  1.0309e-01  8.8994e-02  3.6237e-02  3.5037e-02  1.0470e+00  5.3085e-01 -5.6368e+01  0:04:30  336
   165  1.1631e+02  7.8501e-02  8.4579e-02  3.2581e-02  2.5593e-02  1.0281e+00  5.2210e-01 -4.5934e+01  0:04:28  335

  iter  continuity  x-velocity  y-velocity  z-velocity      energy           k       omega  report-def     time/iter
   166  1.2308e+02  8.4509e-02  8.3281e-02  3.2682e-02  4.9182e-02  1.0592e+00  5.4005e-01 -3.8900e+01  0:04:21  334
   167  1.3247e+02  7.5714e-02  8.4417e-02  3.0731e-02  3.1139e-02  1.0249e+00  5.1782e-01 -5.1082e+01  0:04:22  333
   168  1.3301e+02  8.5466e-02  6.3570e-02  3.0688e-02  3.5642e-02  1.0621e+00  5.3930e-01 -3.2557e+01  0:04:21  332
   169  1.3716e+02  7.2921e-02  8.4017e-02  3.1884e-02  3.6738e-02  1.0454e+00  5.2887e-01 -1.4375e+01  0:04:21  331
   170  1.3462e+02  6.9345e-02  7.2633e-02  2.7964e-02  4.1614e-02  1.0705e+00  5.4359e-01 -3.2516e+00  0:04:16  330
   171  1.4861e+02  8.6020e-02  7.1141e-02  3.3423e-02  2.6983e-02  1.0225e+00  5.1611e-01 -3.8131e+00  0:04:25  329
   172  1.5580e+02  8.3853e-02  7.1664e-02  3.1267e-02  2.7231e-02  1.0427e+00  5.2670e-01 -1.8936e+01  0:04:23  328
   173  1.4717e+02  6.3337e-02  7.2841e-02  3.2769e-02  3.3759e-02  1.0188e+00  5.1583e-01 -3.9018e+01  0:04:16  327
   174  1.6127e+02  8.1398e-02  8.2707e-02  3.5292e-02  3.8087e-02  1.0975e+00  5.4698e-01 -6.7113e+01  0:04:16  326
   175  1.6478e+02  6.7782e-02  7.7908e-02  3.1992e-02  3.5982e-02  1.0164e+00  5.1270e-01 -6.1861e+01  0:04:10  325
   176  1.8512e+02  8.4860e-02  7.0687e-02  3.1943e-02  3.0511e-02  1.0802e+00  5.4763e-01 -6.8096e+01  0:04:11  324

  iter  continuity  x-velocity  y-velocity  z-velocity      energy           k       omega  report-def     time/iter
   177  1.8058e+02  5.8703e-02  7.1425e-02  3.2352e-02  3.8497e-02  1.0406e+00  5.2911e-01 -8.4713e+01  0:04:06  323
   178  1.9925e+02  7.5985e-02  7.4168e-02  3.0738e-02  4.7237e-02  1.0447e+00  5.2914e-01 -1.1573e+02  0:04:08  322
   179  1.9451e+02  7.1825e-02  6.1004e-02  3.0659e-02  2.6615e-02  1.0133e+00  5.1071e-01 -1.3832e+02  0:04:10  321
   180  2.2999e+02  7.1748e-02  6.3927e-02  3.0376e-02  3.5909e-02  1.0566e+00  5.3162e-01 -2.2744e+02  0:04:04  320
   181  2.0874e+02  5.7535e-02  5.8822e-02  2.6964e-02  2.9012e-02  1.0138e+00  5.1337e-01 -3.7324e+02  0:04:00  319
   182  2.2317e+02  5.7148e-02  5.8983e-02  2.5848e-02  4.0864e-02  1.0682e+00  5.4397e-01 -5.0575e+02  0:03:57  318
   183  2.3584e+02  6.0236e-02  5.6717e-02  2.6261e-02  2.7952e-02  1.0065e+00  5.0888e-01 -5.9937e+02  0:03:59  317
   184  2.6210e+02  6.0173e-02  4.9759e-02  2.4755e-02  2.8009e-02  1.0098e+00  5.0993e-01 -7.0858e+02  0:03:55  316
   185  2.5139e+02  4.6536e-02  6.2624e-02  2.7015e-02  2.7859e-02  1.0169e+00  5.1703e-01 -7.2691e+02  0:03:52  315
   186  2.6340e+02  5.8239e-02  5.7085e-02  2.9425e-02  3.1053e-02  1.0714e+00  5.4275e-01 -6.8171e+02  0:03:50  314
   187  2.9333e+02  5.7268e-02  5.7241e-02  3.2379e-02  2.7134e-02  1.0057e+00  5.0802e-01 -5.1384e+02  0:03:49  313

  iter  continuity  x-velocity  y-velocity  z-velocity      energy           k       omega  report-def     time/iter
   188  3.4466e+02  5.9598e-02  5.4859e-02  3.3684e-02  2.7915e-02  9.9888e-01  5.1216e-01 -3.6661e+02  0:03:53  312
   189  3.3065e+02  4.2530e-02  5.4628e-02  3.3197e-02  2.3396e-02  9.7986e-01  4.9835e-01 -1.1936e+02  0:03:51  311
   190  3.7739e+02  4.3272e-02  4.0068e-02  2.9030e-02  3.5724e-02  1.0147e+00  5.2503e-01 -1.1321e+01  0:03:50  310
   191  4.3158e+02  3.7015e-02  3.5433e-02  2.5399e-02  2.2265e-02  9.5870e-01  4.8231e-01  1.3823e+02  0:03:47  309
   192  5.0459e+02  2.8504e-02  2.3860e-02  2.0281e-02  2.6872e-02  8.7916e-01  4.6614e-01  1.3478e+02  0:03:50  308
   193  5.3689e+02  2.1797e-02  2.6444e-02  1.9813e-02  2.5393e-02  8.4432e-01  4.2393e-01  2.8276e+02  0:03:48  307
   194  6.7589e+02  2.0526e-02  2.2543e-02  1.6529e-02  2.1361e-02  8.0178e-01  4.1031e-01  2.8329e+02  0:03:45  306
   195  8.1678e+02  1.6961e-02  2.0664e-02  1.7898e-02  1.7788e-02  8.2622e-01  4.1276e-01  1.8747e+02  0:03:44  305
   196  1.0229e+03  1.8386e-02  1.9784e-02  1.8247e-02  1.9467e-02  8.4347e-01  4.0746e-01  5.5629e+01  0:03:44  304
   197  1.3328e+03  2.2857e-02  2.1872e-02  2.3617e-02  2.2934e-02  8.2571e-01  4.1667e-01 -2.1012e+02  0:03:43  303
   198  1.7480e+03  2.5415e-02  2.6318e-02  3.1465e-02  2.4002e-02  8.5146e-01  4.1921e-01 -7.1986e+02  0:03:42  302

  iter  continuity  x-velocity  y-velocity  z-velocity      energy           k       omega  report-def     time/iter
   199  2.3239e+03  2.7355e-02  2.7272e-02  3.6705e-02  2.3458e-02  8.1017e-01  4.0238e-01 -1.8367e+03  0:03:41  301
   200  3.1475e+03  2.3138e-02  2.3577e-02  3.4830e-02  2.0208e-02  8.0235e-01  4.1516e-01 -4.6837e+03  0:03:40  300
   201  4.3587e+03  1.8300e-02  1.8484e-02  2.9359e-02  1.8636e-02  8.4077e-01  4.1774e-01 -1.1196e+04  0:03:45  299
   202  6.0649e+03  1.3375e-02  1.4081e-02  2.1200e-02  1.3571e-02  8.3944e-01  4.3751e-01 -1.8010e+04  0:03:44  298
   203  7.8956e+03  1.3183e-02  1.3080e-02  2.0208e-02  1.2088e-02  8.2309e-01  3.7786e-01 -2.5346e+04  0:03:42  297
   204  1.0355e+04  1.1428e-02  1.1452e-02  1.9416e-02  1.2965e-02  6.9650e-01  3.7517e-01 -3.6039e+04  0:03:39  296
   205  1.3207e+04  1.0116e-02  1.0714e-02  1.9128e-02  1.2708e-02  8.6914e-01  4.3070e-01 -5.0962e+04  0:03:36  295

 turbulent viscosity limited to viscosity ratio of 1.000000e+05 in 8 cells 
   206  1.6148e+04  1.0135e-02  1.0413e-02  1.8185e-02  1.3682e-02  7.7343e-01  4.1345e-01 -7.0799e+04  0:03:34  294

 turbulent viscosity limited to viscosity ratio of 1.000000e+05 in 1329 cells 
   207  1.9055e+04  1.0805e-02  1.0750e-02  1.7672e-02  1.2931e-02  7.6509e-01  3.8373e-01 -9.4998e+04  0:03:32  293

 turbulent viscosity limited to viscosity ratio of 1.000000e+05 in 7658 cells 
   208  2.2406e+04  1.0850e-02  1.0624e-02  1.7294e-02  1.3368e-02  7.9189e-01  4.0464e-01 -1.2237e+05  0:03:30  292

 turbulent viscosity limited to viscosity ratio of 1.000000e+05 in 14911 cells 
   209  2.6590e+04  1.1827e-02  1.0786e-02  1.7726e-02  1.5244e-02  8.7084e-01  4.4517e-01 -1.4983e+05  0:03:28  291

 turbulent viscosity limited to viscosity ratio of 1.000000e+05 in 24098 cells 

  iter  continuity  x-velocity  y-velocity  z-velocity      energy           k       omega  report-def     time/iter
   210  3.0904e+04  1.2146e-02  1.1030e-02  1.9197e-02  1.5006e-02  8.9506e-01  4.3522e-01 -1.7382e+05  0:03:36  290

 turbulent viscosity limited to viscosity ratio of 1.000000e+05 in 35805 cells 
   211  3.4241e+04  1.2493e-02  1.1978e-02  1.9702e-02  1.6595e-02  9.4325e-01  4.6353e-01 -1.9191e+05  0:03:34  289

 turbulent viscosity limited to viscosity ratio of 1.000000e+05 in 45116 cells 
   212  3.8454e+04  1.4070e-02  1.2202e-02  2.0914e-02  1.7450e-02  9.5277e-01  4.5386e-01 -2.0058e+05  0:03:32  288

 turbulent viscosity limited to viscosity ratio of 1.000000e+05 in 50710 cells 
   213  4.2481e+04  1.4460e-02  1.2746e-02  2.1997e-02  1.7706e-02  9.4947e-01  4.5947e-01 -1.9968e+05  0:03:30  287

 turbulent viscosity limited to viscosity ratio of 1.000000e+05 in 53981 cells 
   214  4.6045e+04  1.5490e-02  1.3041e-02  2.2273e-02  1.8229e-02  9.2210e-01  4.3603e-01 -1.8552e+05  0:03:28  286

 turbulent viscosity limited to viscosity ratio of 1.000000e+05 in 56019 cells 
   215  5.1951e+04  1.6523e-02  1.4279e-02  2.3339e-02  1.9751e-02  9.5496e-01  4.4966e-01 -1.6028e+05  0:03:27  285

 turbulent viscosity limited to viscosity ratio of 1.000000e+05 in 56387 cells 
   216  5.5281e+04  1.7040e-02  1.4529e-02  2.3770e-02  1.9909e-02  9.6843e-01  4.4742e-01 -1.2698e+05  0:03:26  284

 turbulent viscosity limited to viscosity ratio of 1.000000e+05 in 54469 cells 
   217  5.9699e+04  1.7960e-02  1.4562e-02  2.4370e-02  2.0443e-02  9.9807e-01  4.8208e-01 -8.6068e+04  0:03:24  283

 turbulent viscosity limited to viscosity ratio of 1.000000e+05 in 50049 cells 
   218  6.3824e+04  1.7880e-02  1.4183e-02  2.4191e-02  2.0394e-02  9.9983e-01  4.7738e-01 -4.1658e+04  0:03:24  282

 turbulent viscosity limited to viscosity ratio of 1.000000e+05 in 36261 cells 
   219  7.4115e+04  1.9813e-02  1.5752e-02  2.6371e-02  2.7189e-02  1.0175e+00  4.9826e-01  7.4526e+04  0:03:29  281

 turbulent viscosity limited to viscosity ratio of 1.000000e+05 in 30809 cells 
   220  8.5477e+04  1.9066e-02  1.5600e-02  2.5891e-02  2.3644e-02  1.0013e+00  4.9563e-01  1.7343e+05  0:03:27  280

 turbulent viscosity limited to viscosity ratio of 1.000000e+05 in 29500 cells 

  iter  continuity  x-velocity  y-velocity  z-velocity      energy           k       omega  report-def     time/iter
   221  9.9487e+04  1.7527e-02  1.4326e-02  2.4201e-02  2.4203e-02  9.8970e-01  4.8856e-01  2.4713e+05  0:03:25  279

 turbulent viscosity limited to viscosity ratio of 1.000000e+05 in 34176 cells 
   222  1.2096e+05  1.7833e-02  1.4741e-02  2.3659e-02  2.3130e-02  9.7310e-01  4.7456e-01  2.9148e+05  0:03:23  278

 turbulent viscosity limited to viscosity ratio of 1.000000e+05 in 36915 cells 
   223  1.4944e+05  1.8488e-02  1.4696e-02  2.3880e-02  2.6181e-02  9.5793e-01  4.5823e-01  2.7928e+05  0:03:22  277

 turbulent viscosity limited to viscosity ratio of 1.000000e+05 in 40097 cells 
   224  1.8465e+05  1.9327e-02  1.6649e-02  2.7122e-02  2.7963e-02  9.4206e-01  4.5277e-01  2.0877e+05  0:03:21  276

 turbulent viscosity limited to viscosity ratio of 1.000000e+05 in 40870 cells 
   225  2.3041e+05  2.0170e-02  1.9431e-02  2.9104e-02  3.2331e-02  9.2255e-01  4.4742e-01  7.4565e+04  0:03:20  275

 turbulent viscosity limited to viscosity ratio of 1.000000e+05 in 37844 cells 
   226  2.9358e+05  2.2164e-02  2.0724e-02  3.1055e-02  3.3879e-02  9.2988e-01  4.5482e-01 -3.6739e+04  0:03:18  274

 turbulent viscosity limited to viscosity ratio of 1.000000e+05 in 35716 cells 
   227  3.4194e+05  2.1164e-02  2.0108e-02  2.9308e-02  3.5988e-02  9.8048e-01  4.8103e-01 -8.2001e+04  0:03:17  273

 turbulent viscosity limited to viscosity ratio of 1.000000e+05 in 37065 cells 
   228  4.4456e+05  2.0563e-02  2.2328e-02  3.2717e-02  3.7407e-02  9.9458e-01  4.9269e-01 -8.2330e+04  0:03:16  272

 turbulent viscosity limited to viscosity ratio of 1.000000e+05 in 40716 cells 
   229  5.3640e+05  1.9416e-02  2.2485e-02  3.3070e-02  3.8401e-02  9.8776e-01  4.8675e-01 -6.2432e+04  0:03:15  271

 turbulent viscosity limited to viscosity ratio of 1.000000e+05 in 44336 cells 
   230  6.2167e+05  2.1928e-02  2.4485e-02  3.2401e-02  3.9946e-02  9.6592e-01  4.7249e-01 -1.6998e+04  0:03:14  270

 turbulent viscosity limited to viscosity ratio of 1.000000e+05 in 47125 cells 
   231  7.9263e+05  2.2574e-02  2.5746e-02  3.2121e-02  4.4310e-02  9.5016e-01  4.5927e-01  1.1159e+05  0:03:13  269

 turbulent viscosity limited to viscosity ratio of 1.000000e+05 in 57854 cells 

  iter  continuity  x-velocity  y-velocity  z-velocity      energy           k       omega  report-def     time/iter
   232  9.2615e+05  2.1916e-02  2.8124e-02  3.4827e-02  4.3418e-02  9.6986e-01  4.8833e-01  1.0847e+05  0:03:12  268

 turbulent viscosity limited to viscosity ratio of 1.000000e+05 in 76854 cells 
   233  1.0774e+06  2.3724e-02  2.9460e-02  3.5149e-02  4.6283e-02  9.9725e-01  4.9949e-01 -2.1524e+04  0:03:11  267

 turbulent viscosity limited to viscosity ratio of 1.000000e+05 in 85778 cells 
   234  1.3108e+06  2.7629e-02  3.1548e-02  3.7137e-02  4.8626e-02  9.9215e-01  5.0066e-01  1.0853e+04  0:03:10  266

 turbulent viscosity limited to viscosity ratio of 1.000000e+05 in 90431 cells 
   235  1.7134e+06  2.9664e-02  3.4774e-02  3.9163e-02  4.6920e-02  9.9374e-01  4.9897e-01  1.5029e+05  0:03:10  265

 turbulent viscosity limited to viscosity ratio of 1.000000e+05 in 93315 cells 
   236  2.2676e+06  2.5773e-02  3.5186e-02  3.7832e-02  4.6736e-02  9.8982e-01  4.9536e-01  3.8772e+05  0:03:11  264

 turbulent viscosity limited to viscosity ratio of 1.000000e+05 in 96528 cells 
   237  2.7341e+06  2.2953e-02  3.4233e-02  3.2464e-02  4.4648e-02  9.8082e-01  4.9374e-01  9.2918e+05  0:03:10  263

 turbulent viscosity limited to viscosity ratio of 1.000000e+05 in 98511 cells 
   238  3.5755e+06  2.2361e-02  3.2273e-02  3.1325e-02  4.1932e-02  9.9154e-01  4.9829e-01  2.0509e+06  0:03:12  262

 turbulent viscosity limited to viscosity ratio of 1.000000e+05 in 102027 cells 
   239  4.5410e+06  2.2794e-02  3.1660e-02  3.0186e-02  4.0741e-02  9.9758e-01  5.0208e-01  3.1839e+06  0:03:11  261

 turbulent viscosity limited to viscosity ratio of 1.000000e+05 in 103871 cells 
   240  6.1380e+06  2.4186e-02  3.4820e-02  3.0862e-02  4.6386e-02  9.9327e-01  4.9594e-01  3.9190e+06  0:03:10  260

 turbulent viscosity limited to viscosity ratio of 1.000000e+05 in 105071 cells 
   241  8.1067e+06  2.5973e-02  3.6525e-02  3.4390e-02  5.2840e-02  9.9209e-01  4.9544e-01  4.6954e+06  0:03:14  259

 turbulent viscosity limited to viscosity ratio of 1.000000e+05 in 107326 cells 
   242  1.0356e+07  2.7509e-02  4.0354e-02  3.4273e-02  5.2776e-02  9.9859e-01  4.9928e-01  4.2777e+06  0:03:19  258

 turbulent viscosity limited to viscosity ratio of 1.000000e+05 in 106538 cells 

  iter  continuity  x-velocity  y-velocity  z-velocity      energy           k       omega  report-def     time/iter
   243  1.2632e+07  3.0338e-02  4.6241e-02  3.9609e-02  5.6933e-02  9.9763e-01  4.9883e-01  2.2030e+06  0:03:21  257

 absolute pressure limited to 5.000000e+10 in 6 cells on zone 14524 

 turbulent viscosity limited to viscosity ratio of 1.000000e+05 in 107092 cells 
   244  1.4827e+07  3.1250e-02  4.4623e-02  3.8294e-02  6.9481e-02  9.9953e-01  4.9978e-01  9.4436e+05  0:03:17  256

 absolute pressure limited to 5.000000e+10 in 10 cells on zone 14524 

 turbulent viscosity limited to viscosity ratio of 1.000000e+05 in 106716 cells 
   245  1.9025e+07  3.3931e-02  4.6352e-02  3.6922e-02  7.1270e-02  9.9959e-01  4.9980e-01  6.8273e+05  0:03:14  255

 absolute pressure limited to 5.000000e+10 in 25 cells on zone 14524 

 turbulent viscosity limited to viscosity ratio of 1.000000e+05 in 107686 cells 
   246  2.4272e+07  3.4815e-02  5.0407e-02  3.4339e-02  6.1317e-02  9.9834e-01  4.9839e-01  1.2308e+06  0:03:11  254

 absolute pressure limited to 5.000000e+10 in 76 cells on zone 14524 

 turbulent viscosity limited to viscosity ratio of 1.000000e+05 in 107823 cells 
   247  3.1267e+07  3.2995e-02  4.7640e-02  3.4988e-02  5.3278e-02  9.9602e-01  4.9594e-01  1.8854e+06  0:03:09  253

 absolute pressure limited to 5.000000e+10 in 200 cells on zone 14524 

 turbulent viscosity limited to viscosity ratio of 1.000000e+05 in 108264 cells 
   248  4.4021e+07  3.2537e-02  4.5451e-02  3.3838e-02  6.0077e-02  9.9021e-01  4.9112e-01  5.6921e+06  0:03:11  252

 absolute pressure limited to 5.000000e+10 in 660 cells on zone 14524 

 turbulent viscosity limited to viscosity ratio of 1.000000e+05 in 108164 cells 
   249  5.0086e+07  3.2371e-02  5.1582e-02  3.8186e-02  5.2570e-02  9.8921e-01  4.9007e-01  9.1318e+06  0:03:13  251

 absolute pressure limited to 5.000000e+10 in 38418 cells on zone 14524 

 turbulent viscosity limited to viscosity ratio of 1.000000e+05 in 108229 cells 
   250  5.7306e+07  2.9215e-02  4.8905e-02  3.5649e-02  5.1311e-02  9.9121e-01  4.9185e-01  4.5156e+06  0:03:20  250

 absolute pressure limited to 5.000000e+10 in 117109 cells on zone 14524 

 turbulent viscosity limited to viscosity ratio of 1.000000e+05 in 107634 cells 
   251  5.8144e+07  3.1579e-02  4.9711e-02  3.7258e-02  7.0693e-02  9.9684e-01  4.9645e-01  2.9034e+04  0:03:20  249

 absolute pressure limited to 5.000000e+10 in 119524 cells on zone 14524 

 turbulent viscosity limited to viscosity ratio of 1.000000e+05 in 107030 cells 
   252  5.3546e+07  4.0342e-02  5.3819e-02  4.0146e-02  7.0265e-02  9.9812e-01  4.9692e-01  4.2049e+04  0:03:20  248

 absolute pressure limited to 5.000000e+10 in 119774 cells on zone 14524 

 turbulent viscosity limited to viscosity ratio of 1.000000e+05 in 106411 cells 
   253  5.1921e+07  3.8524e-02  5.6792e-02  4.0088e-02  7.1513e-02  1.0044e+00  4.9990e-01  5.1069e+04  0:03:20  247

 absolute pressure limited to 5.000000e+10 in 120033 cells on zone 14524 

 turbulent viscosity limited to viscosity ratio of 1.000000e+05 in 106024 cells 

  iter  continuity  x-velocity  y-velocity  z-velocity      energy           k       omega  report-def     time/iter
   254  5.5421e+07  3.6055e-02  5.8221e-02  4.4982e-02  7.0026e-02  1.0121e+00  5.0392e-01  6.6595e+04  0:03:19  246

 absolute pressure limited to 5.000000e+10 in 120117 cells on zone 14524 

 turbulent viscosity limited to viscosity ratio of 1.000000e+05 in 105301 cells 
   255  5.5035e+07  3.6492e-02  5.0882e-02  4.5774e-02  6.1114e-02  1.0044e+00  5.0183e-01  7.7771e+04  0:03:18  245

 absolute pressure limited to 5.000000e+10 in 120280 cells on zone 14524 

 turbulent viscosity limited to viscosity ratio of 1.000000e+05 in 105055 cells 
   256  5.6141e+07  3.3779e-02  5.0519e-02  5.0781e-02  6.5895e-02  1.0016e+00  5.0089e-01  7.7212e+04  0:03:18  244

 absolute pressure limited to 5.000000e+10 in 120362 cells on zone 14524 

 turbulent viscosity limited to viscosity ratio of 1.000000e+05 in 104899 cells 
   257  6.1087e+07  3.2338e-02  5.1010e-02  5.3560e-02  6.2153e-02  1.0064e+00  5.0269e-01  7.4701e+04  0:03:19  243

 absolute pressure limited to 5.000000e+10 in 120376 cells on zone 14524 

 turbulent viscosity limited to viscosity ratio of 1.000000e+05 in 104627 cells 
   258  6.0423e+07  2.5254e-02  5.5507e-02  5.1092e-02  5.6971e-02  1.0023e+00  5.0126e-01  7.9046e+04  0:03:23  242

 absolute pressure limited to 5.000000e+10 in 120384 cells on zone 14524 

 turbulent viscosity limited to viscosity ratio of 1.000000e+05 in 103938 cells 
   259  6.4290e+07  2.4099e-02  5.5363e-02  5.2015e-02  6.1496e-02  9.9978e-01  4.9898e-01  8.3785e+04  0:03:21  241

 absolute pressure limited to 5.000000e+10 in 120421 cells on zone 14524 

 turbulent viscosity limited to viscosity ratio of 1.000000e+05 in 103680 cells 
   260  6.7735e+07  2.7437e-02  5.4514e-02  5.4281e-02  5.6697e-02  1.0026e+00  5.0016e-01  7.4599e+04  0:03:19  240

 absolute pressure limited to 5.000000e+10 in 120400 cells on zone 14524 

 turbulent viscosity limited to viscosity ratio of 1.000000e+05 in 104424 cells 
   261  7.3825e+07  2.4037e-02  5.4403e-02  5.8760e-02  6.0398e-02  1.0025e+00  4.9966e-01  6.6807e+04  0:03:18  239

 absolute pressure limited to 5.000000e+10 in 120400 cells on zone 14524 

 turbulent viscosity limited to viscosity ratio of 1.000000e+05 in 104580 cells 
   262  7.6556e+07  2.2467e-02  5.5313e-02  5.6800e-02  5.4737e-02  1.0040e+00  5.0219e-01  6.3906e+04  0:03:16  238

 absolute pressure limited to 5.000000e+10 in 120420 cells on zone 14524 

 turbulent viscosity limited to viscosity ratio of 1.000000e+05 in 105084 cells 
   263  7.7784e+07  2.1414e-02  5.8177e-02  5.6950e-02  5.4295e-02  1.0012e+00  5.0024e-01  5.9859e+04  0:03:15  237

 absolute pressure limited to 5.000000e+10 in 120431 cells on zone 14524 

 turbulent viscosity limited to viscosity ratio of 1.000000e+05 in 106001 cells 
   264  7.9653e+07  2.2081e-02  5.8133e-02  5.3120e-02  5.5300e-02  9.9997e-01  4.9838e-01  4.8456e+04  0:03:14  236

 absolute pressure limited to 5.000000e+10 in 120418 cells on zone 14524 

 turbulent viscosity limited to viscosity ratio of 1.000000e+05 in 105885 cells 

  iter  continuity  x-velocity  y-velocity  z-velocity      energy           k       omega  report-def     time/iter
   265  8.0492e+07  2.1811e-02  5.2673e-02  5.8026e-02  5.8673e-02  1.0001e+00  4.9987e-01  3.7558e+04  0:03:13  235

 absolute pressure limited to 5.000000e+10 in 120428 cells on zone 14524 

 turbulent viscosity limited to viscosity ratio of 1.000000e+05 in 106359 cells 
   266  8.8360e+07  2.0394e-02  5.7795e-02  5.4945e-02  5.3917e-02  1.0009e+00  4.9982e-01  3.2725e+04  0:03:12  234

 absolute pressure limited to 5.000000e+10 in 120419 cells on zone 14524 

 turbulent viscosity limited to viscosity ratio of 1.000000e+05 in 106422 cells 
   267  9.3442e+07  1.8674e-02  5.7671e-02  5.7804e-02  6.4351e-02  1.0018e+00  4.9972e-01  2.8865e+04  0:03:11  233

 absolute pressure limited to 5.000000e+10 in 120387 cells on zone 14524 

 turbulent viscosity limited to viscosity ratio of 1.000000e+05 in 106135 cells 
   268  9.5169e+07  2.3433e-02  5.3758e-02  6.0057e-02  5.7183e-02  1.0151e+00  5.0230e-01  2.3639e+04  0:03:10  232

 absolute pressure limited to 5.000000e+10 in 120411 cells on zone 14524 

 turbulent viscosity limited to viscosity ratio of 1.000000e+05 in 106465 cells 
   269  1.0620e+08  1.8284e-02  5.4934e-02  5.8493e-02  5.5368e-02  1.0005e+00  5.0011e-01  2.1576e+04  0:03:09  231

 absolute pressure limited to 5.000000e+10 in 120439 cells on zone 14524 

 turbulent viscosity limited to viscosity ratio of 1.000000e+05 in 106445 cells 
   270  1.0717e+08  1.6671e-02  5.7707e-02  5.5888e-02  7.0883e-02  1.0003e+00  4.9992e-01  2.0324e+04  0:03:04  230

 absolute pressure limited to 5.000000e+10 in 120493 cells on zone 14524 

 turbulent viscosity limited to viscosity ratio of 1.000000e+05 in 106927 cells 
   271  1.4667e+08  1.9325e-02  5.5881e-02  3.9505e-02  5.8805e-02  1.0019e+00  4.9973e-01  1.6927e+04  0:03:00  229

 absolute pressure limited to 5.000000e+10 in 120497 cells on zone 14524 

 turbulent viscosity limited to viscosity ratio of 1.000000e+05 in 106821 cells 
   272  1.7919e+08  1.6447e-02  5.3448e-02  4.0892e-02  5.1203e-02  9.9722e-01  4.9751e-01  1.6884e+04  0:02:57  228

 absolute pressure limited to 5.000000e+10 in 120591 cells on zone 14524 

 turbulent viscosity limited to viscosity ratio of 1.000000e+05 in 106870 cells 
   273  2.2587e+08  1.5431e-02  5.7264e-02  4.1349e-02  4.2496e-02  9.8708e-01  4.9177e-01  1.5683e+04  0:02:54  227

 absolute pressure limited to 5.000000e+10 in 120582 cells on zone 14524 

 turbulent viscosity limited to viscosity ratio of 1.000000e+05 in 106924 cells 
   274  2.6843e+08  1.5579e-02  5.9779e-02  4.1293e-02  3.8273e-02  9.7001e-01  4.8610e-01  1.6177e+04  0:02:55  226

 absolute pressure limited to 5.000000e+10 in 120585 cells on zone 14524 

 turbulent viscosity limited to viscosity ratio of 1.000000e+05 in 106916 cells 
   275  2.6939e+08  1.3930e-02  5.7215e-02  4.4812e-02  3.5044e-02  9.7962e-01  4.8309e-01  1.4810e+04  0:02:52  225

 absolute pressure limited to 5.000000e+10 in 120594 cells on zone 14524 

 turbulent viscosity limited to viscosity ratio of 1.000000e+05 in 106960 cells 

  iter  continuity  x-velocity  y-velocity  z-velocity      energy           k       omega  report-def     time/iter
   276  2.7852e+08  1.3649e-02  5.3605e-02  4.4247e-02  2.9226e-02  9.7495e-01  4.7955e-01  1.4726e+04  0:02:52  224

 absolute pressure limited to 5.000000e+10 in 120567 cells on zone 14524 

 turbulent viscosity limited to viscosity ratio of 1.000000e+05 in 107002 cells 
   277  2.6986e+08  1.2536e-02  4.9222e-02  4.6546e-02  2.6927e-02  9.9735e-01  4.9741e-01  1.3980e+04  0:02:50  223

 absolute pressure limited to 5.000000e+10 in 120573 cells on zone 14524 

 turbulent viscosity limited to viscosity ratio of 1.000000e+05 in 107094 cells 
   278  2.7717e+08  1.1396e-02  4.7646e-02  4.9571e-02  2.8458e-02  9.9126e-01  4.9584e-01  1.3845e+04  0:02:49  222

 absolute pressure limited to 5.000000e+10 in 120574 cells on zone 14524 

 turbulent viscosity limited to viscosity ratio of 1.000000e+05 in 107441 cells 
   279  3.0065e+08  1.2132e-02  4.8787e-02  5.2270e-02  2.8189e-02  9.9828e-01  4.9824e-01  1.3456e+04  0:02:51  221

 absolute pressure limited to 5.000000e+10 in 120570 cells on zone 14524 

 turbulent viscosity limited to viscosity ratio of 1.000000e+05 in 107218 cells 
   280  3.1203e+08  1.0796e-02  5.0188e-02  5.0091e-02  2.9406e-02  9.9853e-01  4.9853e-01  1.3234e+04  0:02:50  220

 absolute pressure limited to 5.000000e+10 in 120576 cells on zone 14524 

 turbulent viscosity limited to viscosity ratio of 1.000000e+05 in 107549 cells 
   281  3.3731e+08  1.1019e-02  5.1262e-02  4.8582e-02  2.6811e-02  9.9758e-01  4.9788e-01  1.2859e+04  0:02:47  219

 absolute pressure limited to 5.000000e+10 in 120564 cells on zone 14524 

 turbulent viscosity limited to viscosity ratio of 1.000000e+05 in 107317 cells 
   282  3.5735e+08  1.0604e-02  5.1416e-02  4.6179e-02  2.4883e-02  9.8861e-01  4.9463e-01  1.2916e+04  0:02:45  218

 absolute pressure limited to 5.000000e+10 in 120576 cells on zone 14524 

 turbulent viscosity limited to viscosity ratio of 1.000000e+05 in 107702 cells 
   283  3.5961e+08  9.8346e-03  5.0424e-02  4.4178e-02  2.3767e-02  9.9385e-01  4.9417e-01  1.2633e+04  0:02:43  217

 absolute pressure limited to 5.000000e+10 in 120581 cells on zone 14524 

 turbulent viscosity limited to viscosity ratio of 1.000000e+05 in 107379 cells 
   284  3.8954e+08  9.9669e-03  4.7326e-02  4.3225e-02  2.5519e-02  9.7333e-01  4.8717e-01  1.2780e+04  0:02:41  216

 absolute pressure limited to 5.000000e+10 in 120569 cells on zone 14524 

 turbulent viscosity limited to viscosity ratio of 1.000000e+05 in 107793 cells 
   285  3.9911e+08  9.3574e-03  4.6403e-02  4.3277e-02  2.3684e-02  9.8325e-01  4.8615e-01  1.2448e+04  0:02:40  215

 absolute pressure limited to 5.000000e+10 in 120583 cells on zone 14524 

 turbulent viscosity limited to viscosity ratio of 1.000000e+05 in 107347 cells 
   286  4.0231e+08  8.1477e-03  4.5398e-02  4.2240e-02  2.2626e-02  9.9344e-01  4.9266e-01  1.2184e+04  0:02:39  214

 absolute pressure limited to 5.000000e+10 in 120561 cells on zone 14524 

 turbulent viscosity limited to viscosity ratio of 1.000000e+05 in 107946 cells 

  iter  continuity  x-velocity  y-velocity  z-velocity      energy           k       omega  report-def     time/iter
   287  4.0171e+08  9.5350e-03  4.5668e-02  4.0451e-02  2.3053e-02  9.7150e-01  4.8552e-01  1.1647e+04  0:02:40  213

 absolute pressure limited to 5.000000e+10 in 120563 cells on zone 14524 

 turbulent viscosity limited to viscosity ratio of 1.000000e+05 in 107728 cells 
   288  4.0242e+08  9.3940e-03  4.5206e-02  4.3290e-02  2.4062e-02  9.9845e-01  4.9789e-01  1.1108e+04  0:02:40  212

 absolute pressure limited to 5.000000e+10 in 120575 cells on zone 14524 

 turbulent viscosity limited to viscosity ratio of 1.000000e+05 in 108194 cells 
   289  4.2644e+08  9.7449e-03  4.5909e-02  4.4020e-02  2.4019e-02  9.9449e-01  4.9551e-01  1.0678e+04  0:02:38  211

 absolute pressure limited to 5.000000e+10 in 120566 cells on zone 14524 

 turbulent viscosity limited to viscosity ratio of 1.000000e+05 in 107732 cells 
   290  4.4870e+08  9.3676e-03  4.6319e-02  4.3726e-02  2.4071e-02  9.9848e-01  4.9830e-01  1.0190e+04  0:02:36  210

 absolute pressure limited to 5.000000e+10 in 120561 cells on zone 14524 

 turbulent viscosity limited to viscosity ratio of 1.000000e+05 in 108263 cells 
   291  4.3962e+08  8.8474e-03  4.5539e-02  4.4572e-02  2.9227e-02  9.9081e-01  4.9573e-01  9.0992e+03  0:02:35  209

 absolute pressure limited to 5.000000e+10 in 120575 cells on zone 14524 

 turbulent viscosity limited to viscosity ratio of 1.000000e+05 in 107881 cells 
   292  4.7479e+08  1.0432e-02  4.4845e-02  4.5603e-02  2.6998e-02  9.9579e-01  4.9662e-01  9.4273e+03  0:02:34  208

 absolute pressure limited to 5.000000e+10 in 120575 cells on zone 14524 

 turbulent viscosity limited to viscosity ratio of 1.000000e+05 in 108275 cells 
   293  5.1630e+08  9.5472e-03  4.3367e-02  4.7932e-02  3.0227e-02  9.8644e-01  4.9318e-01  9.4214e+03  0:02:32  207

 absolute pressure limited to 5.000000e+10 in 120563 cells on zone 14524 

 turbulent viscosity limited to viscosity ratio of 1.000000e+05 in 107851 cells 
   294  5.2059e+08  1.0186e-02  4.4448e-02  4.5305e-02  3.1627e-02  9.8926e-01  4.9153e-01  9.6051e+03  0:02:31  206

 absolute pressure limited to 5.000000e+10 in 120567 cells on zone 14524 

 turbulent viscosity limited to viscosity ratio of 1.000000e+05 in 108217 cells 
   295  5.3599e+08  1.0461e-02  4.4216e-02  4.4931e-02  2.6928e-02  9.8403e-01  4.8972e-01  9.5672e+03  0:02:31  205

 absolute pressure limited to 5.000000e+10 in 120547 cells on zone 14524 

 turbulent viscosity limited to viscosity ratio of 1.000000e+05 in 107763 cells 
   296  5.2681e+08  1.0162e-02  4.3651e-02  4.4189e-02  2.8307e-02  9.8047e-01  4.8722e-01  8.5480e+03  0:02:34  204

 absolute pressure limited to 5.000000e+10 in 120566 cells on zone 14524 

 turbulent viscosity limited to viscosity ratio of 1.000000e+05 in 108533 cells 
   297  5.4562e+08  1.0466e-02  4.4223e-02  4.4487e-02  2.7946e-02  9.8095e-01  4.8417e-01  7.3114e+03  0:02:32  203

 absolute pressure limited to 5.000000e+10 in 120558 cells on zone 14524 

 turbulent viscosity limited to viscosity ratio of 1.000000e+05 in 108877 cells 

  iter  continuity  x-velocity  y-velocity  z-velocity      energy           k       omega  report-def     time/iter
   298  6.0242e+08  1.0023e-02  4.5673e-02  4.6068e-02  3.2876e-02  9.9228e-01  4.9175e-01  6.8766e+03  0:02:31  202

 absolute pressure limited to 5.000000e+10 in 120552 cells on zone 14524 

 turbulent viscosity limited to viscosity ratio of 1.000000e+05 in 109375 cells 
   299  5.9547e+08  1.0247e-02  4.8700e-02  4.6948e-02  3.4913e-02  9.9920e-01  4.9921e-01  6.3471e+03  0:02:29  201

 absolute pressure limited to 5.000000e+10 in 120574 cells on zone 14524 

 turbulent viscosity limited to viscosity ratio of 1.000000e+05 in 109353 cells 
   300  6.2708e+08  9.7880e-03  4.9512e-02  4.7260e-02  3.8930e-02  9.9584e-01  4.9805e-01  6.7781e+03  0:02:40  200

 absolute pressure limited to 5.000000e+10 in 120547 cells on zone 14524 

 turbulent viscosity limited to viscosity ratio of 1.000000e+05 in 109549 cells 
   301  6.5969e+08  1.0043e-02  5.2953e-02  4.4628e-02  3.8935e-02  9.9660e-01  4.9734e-01  6.1560e+03  0:02:37  199

 absolute pressure limited to 5.000000e+10 in 120560 cells on zone 14524 

 turbulent viscosity limited to viscosity ratio of 1.000000e+05 in 109514 cells 
   302  6.9329e+08  9.4271e-03  5.3154e-02  4.0552e-02  3.6159e-02  9.9969e-01  4.9968e-01  6.0695e+03  0:02:34  198
 temperature limited to 5.000000e+03 in 2 cells on zone 14524 in domain 1
 
 absolute pressure limited to 5.000000e+10 in 120552 cells on zone 14524 

 turbulent viscosity limited to viscosity ratio of 1.000000e+05 in 109941 cells 
   303  7.0058e+08  9.4383e-03  5.3621e-02  3.8493e-02  3.8045e-02  9.9837e-01  4.9920e-01  5.9714e+03  0:02:31  197
 temperature limited to 5.000000e+03 in 10 cells on zone 14524 in domain 1
 
 absolute pressure limited to 5.000000e+10 in 120545 cells on zone 14524 

 turbulent viscosity limited to viscosity ratio of 1.000000e+05 in 110167 cells 
   304  7.2685e+08  8.8299e-03  5.3673e-02  3.9018e-02  3.8308e-02  9.9825e-01  4.9877e-01  6.5466e+03  0:02:29  196
 temperature limited to 5.000000e+03 in 2 cells on zone 14524 in domain 1
 
 absolute pressure limited to 5.000000e+10 in 120545 cells on zone 14524 

 turbulent viscosity limited to viscosity ratio of 1.000000e+05 in 110709 cells 
   305  7.6817e+08  9.7667e-03  5.3053e-02  3.8069e-02  4.3384e-02  9.9217e-01  4.9746e-01  6.1321e+03  0:02:27  195
 temperature limited to 5.000000e+03 in 11 cells on zone 14524 in domain 1
 
 absolute pressure limited to 5.000000e+10 in 120557 cells on zone 14524 

 turbulent viscosity limited to viscosity ratio of 1.000000e+05 in 110714 cells 
   306  7.8069e+08  1.0139e-02  5.4431e-02  3.8355e-02  4.3798e-02  9.8505e-01  4.9437e-01  6.8868e+03  0:02:26  194
 temperature limited to 5.000000e+03 in 22 cells on zone 14524 in domain 1
 
 absolute pressure limited to 5.000000e+10 in 120561 cells on zone 14524 

 turbulent viscosity limited to viscosity ratio of 1.000000e+05 in 111295 cells 
   307  8.2873e+08  1.0160e-02  5.3720e-02  3.6567e-02  3.7511e-02  9.9467e-01  4.9596e-01  6.1717e+03  0:02:24  193
 temperature limited to 5.000000e+03 in 36 cells on zone 14524 in domain 1
 
 absolute pressure limited to 5.000000e+10 in 120520 cells on zone 14524 

 turbulent viscosity limited to viscosity ratio of 1.000000e+05 in 112300 cells 
   308  7.9044e+08  9.6659e-03  5.1340e-02  3.6509e-02  3.6683e-02  9.9509e-01  4.9583e-01  6.6991e+03  0:02:23  192
 temperature limited to 5.000000e+03 in 50 cells on zone 14524 in domain 1
 
 absolute pressure limited to 5.000000e+10 in 120541 cells on zone 14524 

 turbulent viscosity limited to viscosity ratio of 1.000000e+05 in 112987 cells 

  iter  continuity  x-velocity  y-velocity  z-velocity      energy           k       omega  report-def     time/iter
   309  7.5924e+08  9.8253e-03  4.9517e-02  3.6311e-02  3.7081e-02  9.9748e-01  4.9737e-01  5.7654e+03  0:02:22  191
 temperature limited to 5.000000e+03 in 73 cells on zone 14524 in domain 1
 
 absolute pressure limited to 5.000000e+10 in 120551 cells on zone 14524 

 turbulent viscosity limited to viscosity ratio of 1.000000e+05 in 113037 cells 
   310  8.2371e+08  1.0509e-02  5.0267e-02  3.6903e-02  3.5729e-02  9.8872e-01  4.9445e-01  6.1328e+03  0:02:20  190
 temperature limited to 1.000000e+00 in 4 cells on zone 14524 in domain 1
  temperature limited to 5.000000e+03 in 88 cells on zone 14524 in domain 1
 
 absolute pressure limited to 5.000000e+10 in 120520 cells on zone 14524 

 turbulent viscosity limited to viscosity ratio of 1.000000e+05 in 113062 cells 
   311  8.5059e+08  9.9766e-03  5.0018e-02  3.8645e-02  3.6015e-02  9.7998e-01  4.9055e-01  4.6134e+03  0:02:22  189
 temperature limited to 1.000000e+00 in 7 cells on zone 14524 in domain 1
  temperature limited to 5.000000e+03 in 101 cells on zone 14524 in domain 1
  temperature limited to 5.000000e+03 on 2 faces

 absolute pressure limited to 5.000000e+10 in 120536 cells on zone 14524 

 turbulent viscosity limited to viscosity ratio of 1.000000e+05 in 113014 cells 
   312  8.0902e+08  9.9097e-03  4.9202e-02  3.9267e-02  3.6837e-02  9.9441e-01  4.9423e-01  5.1220e+03  0:02:21  188
 temperature limited to 1.000000e+00 in 29 cells on zone 14524 in domain 1
  temperature limited to 5.000000e+03 in 118 cells on zone 14524 in domain 1
  temperature limited to 5.000000e+03 on 7 faces

 absolute pressure limited to 5.000000e+10 in 120550 cells on zone 14524 

 turbulent viscosity limited to viscosity ratio of 1.000000e+05 in 113209 cells 
   313  8.5001e+08  1.0708e-02  4.9272e-02  3.9628e-02  3.5250e-02  9.9185e-01  4.9248e-01  3.9475e+03  0:02:21  187
 temperature limited to 1.000000e+00 in 36 cells on zone 14524 in domain 1
  temperature limited to 5.000000e+03 in 143 cells on zone 14524 in domain 1
  temperature limited to 5.000000e+03 on 10 faces

 absolute pressure limited to 5.000000e+10 in 120549 cells on zone 14524 

 turbulent viscosity limited to viscosity ratio of 1.000000e+05 in 112146 cells 
   314  8.8879e+08  1.0396e-02  4.9606e-02  3.9992e-02  3.5440e-02  9.9794e-01  4.9686e-01  4.4262e+03  0:02:20  186
 temperature limited to 1.000000e+00 in 47 cells on zone 14524 in domain 1
  temperature limited to 5.000000e+03 in 163 cells on zone 14524 in domain 1
  temperature limited to 5.000000e+03 on 13 faces

 absolute pressure limited to 5.000000e+10 in 120522 cells on zone 14524 

 turbulent viscosity limited to viscosity ratio of 1.000000e+05 in 112617 cells 
   315  8.8858e+08  9.6856e-03  4.9249e-02  4.0026e-02  4.1372e-02  9.9942e-01  4.9931e-01  3.7590e+03  0:02:16  185
 temperature limited to 1.000000e+00 in 51 cells on zone 14524 in domain 1
  temperature limited to 5.000000e+03 in 49 cells on zone 14524 in domain 1
  temperature limited to 5.000000e+03 on 7 faces

 absolute pressure limited to 5.000000e+10 in 120529 cells on zone 14524 

 turbulent viscosity limited to viscosity ratio of 1.000000e+05 in 112674 cells 
   316  8.8869e+08  1.0143e-02  4.8745e-02  3.6763e-02  4.1268e-02  9.9685e-01  4.9855e-01  4.2094e+03  0:02:15  184
 temperature limited to 1.000000e+00 in 30 cells on zone 14524 in domain 1
  temperature limited to 5.000000e+03 in 153 cells on zone 14524 in domain 1
 
 absolute pressure limited to 5.000000e+10 in 120548 cells on zone 14524 

 turbulent viscosity limited to viscosity ratio of 1.000000e+05 in 113240 cells 
   317  9.1976e+08  9.7140e-03  4.9938e-02  3.7642e-02  4.3145e-02  9.8732e-01  4.9623e-01  3.6605e+03  0:02:14  183
 temperature limited to 1.000000e+00 in 71 cells on zone 14524 in domain 1
  temperature limited to 5.000000e+03 in 45 cells on zone 14524 in domain 1
 
 absolute pressure limited to 5.000000e+10 in 120521 cells on zone 14524 

 turbulent viscosity limited to viscosity ratio of 1.000000e+05 in 113182 cells 
   318  9.4233e+08  9.9917e-03  5.0247e-02  3.6882e-02  4.2366e-02  9.9462e-01  4.9565e-01  4.4452e+03  0:02:13  182
 temperature limited to 1.000000e+00 in 103 cells on zone 14524 in domain 1
  temperature limited to 5.000000e+03 in 74 cells on zone 14524 in domain 1
  temperature limited to 5.000000e+03 on 1 faces

 absolute pressure limited to 5.000000e+10 in 120543 cells on zone 14524 

 turbulent viscosity limited to viscosity ratio of 1.000000e+05 in 113207 cells 
   319  9.4991e+08  9.7972e-03  5.1462e-02  3.4513e-02  3.7731e-02  9.9753e-01  4.9777e-01  3.4752e+03  0:02:13  181
 temperature limited to 1.000000e+00 in 144 cells on zone 14524 in domain 1
  temperature limited to 5.000000e+03 on 2 faces

 absolute pressure limited to 5.000000e+10 in 120526 cells on zone 14524 

 turbulent viscosity limited to viscosity ratio of 1.000000e+05 in 113071 cells 

  iter  continuity  x-velocity  y-velocity  z-velocity      energy           k       omega  report-def     time/iter
   320  9.7518e+08  9.6062e-03  5.0382e-02  3.3060e-02  4.2232e-02  9.9000e-01  4.9487e-01  3.6265e+03  0:02:12  180
 temperature limited to 1.000000e+00 in 193 cells on zone 14524 in domain 1
 
 absolute pressure limited to 5.000000e+10 in 120505 cells on zone 14524 

 turbulent viscosity limited to viscosity ratio of 1.000000e+05 in 113036 cells 
   321  9.5630e+08  9.3750e-03  4.9904e-02  3.2970e-02  4.3144e-02  9.9743e-01  4.9652e-01  2.8905e+03  0:02:11  179
 temperature limited to 1.000000e+00 in 245 cells on zone 14524 in domain 1
 
 absolute pressure limited to 5.000000e+10 in 120518 cells on zone 14524 

 turbulent viscosity limited to viscosity ratio of 1.000000e+05 in 112917 cells 
   322  9.6961e+08  9.6303e-03  5.0572e-02  3.2019e-02  4.3763e-02  9.9343e-01  4.9510e-01  2.5214e+03  0:02:11  178
 temperature limited to 1.000000e+00 in 286 cells on zone 14524 in domain 1
 
 absolute pressure limited to 5.000000e+10 in 120516 cells on zone 14524 

 turbulent viscosity limited to viscosity ratio of 1.000000e+05 in 113100 cells 
   323  1.0007e+09  9.4436e-03  4.9020e-02  3.1172e-02  4.4651e-02  9.9992e-01  4.9994e-01  2.1337e+03  0:02:10  177
 temperature limited to 1.000000e+00 in 333 cells on zone 14524 in domain 1
 
 absolute pressure limited to 5.000000e+10 in 120522 cells on zone 14524 

 turbulent viscosity limited to viscosity ratio of 1.000000e+05 in 112780 cells 
   324  9.9548e+08  9.3668e-03  5.1116e-02  3.1215e-02  4.2521e-02  9.9951e-01  4.9984e-01  2.2716e+03  0:02:10  176
 temperature limited to 1.000000e+00 in 376 cells on zone 14524 in domain 1
 
 absolute pressure limited to 5.000000e+10 in 120522 cells on zone 14524 

 turbulent viscosity limited to viscosity ratio of 1.000000e+05 in 112605 cells 
   325  1.0164e+09  9.2779e-03  4.9374e-02  3.1061e-02  3.8729e-02  9.9734e-01  4.9958e-01  1.4821e+03  0:02:09  175
 temperature limited to 1.000000e+00 in 414 cells on zone 14524 in domain 1
 
 absolute pressure limited to 5.000000e+10 in 120513 cells on zone 14524 

 turbulent viscosity limited to viscosity ratio of 1.000000e+05 in 112842 cells 
   326  9.8488e+08  8.9813e-03  4.8563e-02  2.9635e-02  3.8285e-02  9.8913e-01  4.9914e-01  1.6521e+03  0:02:08  174
 temperature limited to 1.000000e+00 in 466 cells on zone 14524 in domain 1
 
 absolute pressure limited to 5.000000e+10 in 120541 cells on zone 14524 

 turbulent viscosity limited to viscosity ratio of 1.000000e+05 in 112833 cells 
   327  9.5853e+08  9.2361e-03  4.8581e-02  3.1414e-02  3.7921e-02  9.8753e-01  4.9827e-01  1.1572e+03  0:02:08  173
 temperature limited to 1.000000e+00 in 481 cells on zone 14524 in domain 1
 
 absolute pressure limited to 5.000000e+10 in 120527 cells on zone 14524 

 turbulent viscosity limited to viscosity ratio of 1.000000e+05 in 112206 cells 
   328  1.0367e+09  9.7640e-03  4.8132e-02  3.4624e-02  3.8185e-02  9.8176e-01  4.9519e-01  1.1497e+03  0:02:10  172
 temperature limited to 1.000000e+00 in 559 cells on zone 14524 in domain 1
 
 absolute pressure limited to 5.000000e+10 in 120519 cells on zone 14524 

 turbulent viscosity limited to viscosity ratio of 1.000000e+05 in 111347 cells 
   329  1.0016e+09  9.2673e-03  4.4946e-02  3.4335e-02  3.7676e-02  9.8967e-01  4.9490e-01  4.4593e+02  0:02:09  171
 temperature limited to 1.000000e+00 in 212 cells on zone 14524 in domain 1
 
 absolute pressure limited to 5.000000e+10 in 120527 cells on zone 14524 

 turbulent viscosity limited to viscosity ratio of 1.000000e+05 in 110884 cells 
   330  1.0271e+09  9.7929e-03  4.5570e-02  3.7095e-02  3.8019e-02  9.9074e-01  4.9316e-01  1.6913e+02  0:02:07  170
 temperature limited to 1.000000e+00 in 284 cells on zone 14524 in domain 1
 
 absolute pressure limited to 5.000000e+10 in 120530 cells on zone 14524 

 turbulent viscosity limited to viscosity ratio of 1.000000e+05 in 110277 cells 

  iter  continuity  x-velocity  y-velocity  z-velocity      energy           k       omega  report-def     time/iter
   331  1.0500e+09  9.5843e-03  4.8196e-02  3.5021e-02  3.9788e-02  9.9768e-01  4.9730e-01 -9.7529e+02  0:02:08  169
 temperature limited to 1.000000e+00 in 323 cells on zone 14524 in domain 1
 
 absolute pressure limited to 5.000000e+10 in 120507 cells on zone 14524 

 turbulent viscosity limited to viscosity ratio of 1.000000e+05 in 109744 cells 
   332  1.0100e+09  9.3854e-03  4.8089e-02  3.4553e-02  4.2187e-02  9.9376e-01  4.9524e-01 -1.3441e+03  0:02:10  168
 temperature limited to 1.000000e+00 in 433 cells on zone 14524 in domain 1
 
 absolute pressure limited to 5.000000e+10 in 120525 cells on zone 14524 

 turbulent viscosity limited to viscosity ratio of 1.000000e+05 in 109559 cells 
   333  9.9918e+08  9.7657e-03  4.7378e-02  3.2449e-02  3.9895e-02  9.9825e-01  4.9703e-01 -2.3924e+03  0:02:09  167
 temperature limited to 1.000000e+00 in 545 cells on zone 14524 in domain 1
 
 absolute pressure limited to 5.000000e+10 in 120523 cells on zone 14524 

 turbulent viscosity limited to viscosity ratio of 1.000000e+05 in 109075 cells 
   334  1.0244e+09  9.6776e-03  4.7986e-02  3.4073e-02  3.9515e-02  9.9082e-01  4.9304e-01 -3.0216e+03  0:02:07  166
 temperature limited to 1.000000e+00 in 773 cells on zone 14524 in domain 1
 
 absolute pressure limited to 5.000000e+10 in 120504 cells on zone 14524 

 turbulent viscosity limited to viscosity ratio of 1.000000e+05 in 109070 cells 
   335  1.0246e+09  9.3380e-03  4.7894e-02  3.2353e-02  3.9912e-02  9.9809e-01  4.9768e-01 -4.8160e+03  0:02:05  165
 temperature limited to 1.000000e+00 in 733 cells on zone 14524 in domain 1
 
 absolute pressure limited to 5.000000e+10 in 120522 cells on zone 14524 

 turbulent viscosity limited to viscosity ratio of 1.000000e+05 in 109545 cells 
   336  1.0226e+09  9.0840e-03  4.6531e-02  3.1734e-02  3.9538e-02  9.9966e-01  4.9955e-01 -5.4690e+03  0:02:03  164
 temperature limited to 1.000000e+00 in 485 cells on zone 14524 in domain 1
 
 absolute pressure limited to 5.000000e+10 in 120518 cells on zone 14524 

 turbulent viscosity limited to viscosity ratio of 1.000000e+05 in 109588 cells 
   337  9.8469e+08  8.6374e-03  4.6619e-02  3.1069e-02  4.1340e-02  9.9828e-01  4.9883e-01 -7.1273e+03  0:02:02  163
 temperature limited to 1.000000e+00 in 833 cells on zone 14524 in domain 1
 
 absolute pressure limited to 5.000000e+10 in 120535 cells on zone 14524 

 turbulent viscosity limited to viscosity ratio of 1.000000e+05 in 109508 cells 
   338  9.8353e+08  9.1512e-03  4.8094e-02  3.2297e-02  3.6524e-02  9.8977e-01  4.9685e-01 -7.9452e+03  0:02:00  162
 temperature limited to 1.000000e+00 in 878 cells on zone 14524 in domain 1
 
 absolute pressure limited to 5.000000e+10 in 120513 cells on zone 14524 

 turbulent viscosity limited to viscosity ratio of 1.000000e+05 in 109754 cells 
   339  9.7616e+08  8.4928e-03  4.5876e-02  3.1050e-02  3.5835e-02  9.8827e-01  4.9644e-01 -9.8938e+03  0:01:59  161
 temperature limited to 1.000000e+00 in 769 cells on zone 14524 in domain 1
 
 absolute pressure limited to 5.000000e+10 in 120528 cells on zone 14524 

 turbulent viscosity limited to viscosity ratio of 1.000000e+05 in 110587 cells 
   340  9.3946e+08  9.6666e-03  4.7288e-02  3.0029e-02  3.2825e-02  9.9252e-01  4.9516e-01 -1.1210e+04  0:02:05  160
 temperature limited to 1.000000e+00 in 956 cells on zone 14524 in domain 1
 
 absolute pressure limited to 5.000000e+10 in 120526 cells on zone 14524 

 turbulent viscosity limited to viscosity ratio of 1.000000e+05 in 111023 cells 
   341  9.2889e+08  9.1572e-03  4.5199e-02  2.9330e-02  3.6349e-02  9.8898e-01  4.8997e-01 -1.3192e+04  0:02:03  159
 temperature limited to 1.000000e+00 in 1220 cells on zone 14524 in domain 1
 
 absolute pressure limited to 5.000000e+10 in 120536 cells on zone 14524 

 turbulent viscosity limited to viscosity ratio of 1.000000e+05 in 111355 cells 

  iter  continuity  x-velocity  y-velocity  z-velocity      energy           k       omega  report-def     time/iter
   342  8.8348e+08  8.9317e-03  4.4348e-02  2.8555e-02  3.8720e-02  9.9627e-01  4.9513e-01 -1.3549e+04  0:02:01  158
 temperature limited to 1.000000e+00 in 1585 cells on zone 14524 in domain 1
 
 absolute pressure limited to 5.000000e+10 in 120549 cells on zone 14524 

 turbulent viscosity limited to viscosity ratio of 1.000000e+05 in 111470 cells 
   343  8.8589e+08  9.3179e-03  4.7383e-02  2.9686e-02  3.4852e-02  9.8901e-01  4.9187e-01 -1.4714e+04  0:01:59  157
 temperature limited to 1.000000e+00 in 1880 cells on zone 14524 in domain 1
 
 absolute pressure limited to 5.000000e+10 in 120533 cells on zone 14524 

 turbulent viscosity limited to viscosity ratio of 1.000000e+05 in 111817 cells 
   344  8.4403e+08  9.0559e-03  4.5795e-02  3.1921e-02  3.5847e-02  9.9072e-01  4.9092e-01 -1.5300e+04  0:01:57  156
 temperature limited to 1.000000e+00 in 470 cells on zone 14524 in domain 1
 
 absolute pressure limited to 5.000000e+10 in 120538 cells on zone 14524 

[...]
 temperature limited to 1.000000e+00 in 84 cells on zone 14524 in domain 1
 
 absolute pressure limited to 5.000000e+10 in 120441 cells on zone 14524 

 turbulent viscosity limited to viscosity ratio of 1.000000e+05 in 113535 cells 
   454  1.3979e+09  9.6483e-03  4.6459e-02  3.0923e-02  5.6299e-02  9.7400e-01  4.8709e-01 -1.1129e+04  0:00:34   46
 temperature limited to 1.000000e+00 in 208 cells on zone 14524 in domain 1
 
 absolute pressure limited to 5.000000e+10 in 120459 cells on zone 14524 

 turbulent viscosity limited to viscosity ratio of 1.000000e+05 in 113795 cells 
   455  1.4529e+09  9.4850e-03  4.7071e-02  3.3939e-02  5.6495e-02  9.9025e-01  4.9295e-01 -1.0234e+04  0:00:33   45
 temperature limited to 1.000000e+00 in 2 cells on zone 14524 in domain 1
 
 absolute pressure limited to 5.000000e+10 in 120437 cells on zone 14524 

 turbulent viscosity limited to viscosity ratio of 1.000000e+05 in 113838 cells 
   456  1.5054e+09  9.3830e-03  4.8923e-02  3.3509e-02  5.5892e-02  9.9608e-01  4.9477e-01 -1.1072e+04  0:00:33   44
 temperature limited to 1.000000e+00 in 94 cells on zone 14524 in domain 1
 
 absolute pressure limited to 5.000000e+10 in 120466 cells on zone 14524 

 turbulent viscosity limited to viscosity ratio of 1.000000e+05 in 113730 cells 
   457  1.6104e+09  8.7058e-03  4.8050e-02  3.1875e-02  5.1489e-02  9.9167e-01  4.9197e-01 -9.2551e+03  0:00:32   43
 temperature limited to 1.000000e+00 in 402 cells on zone 14524 in domain 1
 
 absolute pressure limited to 5.000000e+10 in 120456 cells on zone 14524 

 turbulent viscosity limited to viscosity ratio of 1.000000e+05 in 113050 cells 
   458  1.7170e+09  8.4905e-03  4.5432e-02  2.9196e-02  4.8105e-02  9.9941e-01  4.9928e-01 -1.0854e+04  0:00:31   42
 temperature limited to 1.000000e+00 in 66 cells on zone 14524 in domain 1
 
 absolute pressure limited to 5.000000e+10 in 120442 cells on zone 14524 

 turbulent viscosity limited to viscosity ratio of 1.000000e+05 in 112627 cells 
   459  1.6375e+09  8.2606e-03  4.4354e-02  2.7630e-02  5.3294e-02  9.9728e-01  4.9863e-01 -1.0138e+04  0:00:31   41
 temperature limited to 1.000000e+00 in 33 cells on zone 14524 in domain 1
 
 absolute pressure limited to 5.000000e+10 in 120482 cells on zone 14524 

 turbulent viscosity limited to viscosity ratio of 1.000000e+05 in 112272 cells 
   460  1.6968e+09  8.8306e-03  4.4920e-02  2.5721e-02  5.8261e-02  9.9073e-01  4.9700e-01 -1.1626e+04  0:00:30   40
 temperature limited to 1.000000e+00 in 57 cells on zone 14524 in domain 1
 
 absolute pressure limited to 5.000000e+10 in 120452 cells on zone 14524 

 turbulent viscosity limited to viscosity ratio of 1.000000e+05 in 112319 cells 
   461  1.7937e+09  8.8095e-03  4.7916e-02  2.6816e-02  5.3955e-02  9.8526e-01  4.9357e-01 -9.6879e+03  0:00:29   39
 temperature limited to 1.000000e+00 in 321 cells on zone 14524 in domain 1
 
 absolute pressure limited to 5.000000e+10 in 120412 cells on zone 14524 

 turbulent viscosity limited to viscosity ratio of 1.000000e+05 in 112535 cells 
   462  1.7239e+09  8.4311e-03  4.6921e-02  2.8515e-02  5.6516e-02  9.9538e-01  4.9455e-01 -1.0765e+04  0:00:28   38
 temperature limited to 1.000000e+00 in 558 cells on zone 14524 in domain 1
 
 absolute pressure limited to 5.000000e+10 in 120425 cells on zone 14524 

 turbulent viscosity limited to viscosity ratio of 1.000000e+05 in 112365 cells 

  iter  continuity  x-velocity  y-velocity  z-velocity      energy           k       omega  report-def     time/iter
   463  1.7812e+09  9.0221e-03  4.6306e-02  2.8165e-02  5.6544e-02  9.9397e-01  4.9410e-01 -9.2334e+03  0:00:27   37
 temperature limited to 1.000000e+00 in 80 cells on zone 14524 in domain 1
 
 absolute pressure limited to 5.000000e+10 in 120435 cells on zone 14524 

 turbulent viscosity limited to viscosity ratio of 1.000000e+05 in 112675 cells 
   464  1.7929e+09  9.0179e-03  4.7076e-02  3.0929e-02  5.4075e-02  9.9826e-01  4.9796e-01 -1.0361e+04  0:00:27   36
 temperature limited to 1.000000e+00 in 773 cells on zone 14524 in domain 1
 
 absolute pressure limited to 5.000000e+10 in 120445 cells on zone 14524 

 turbulent viscosity limited to viscosity ratio of 1.000000e+05 in 112715 cells 
   465  1.9818e+09  9.1585e-03  4.9201e-02  3.2271e-02  5.2042e-02  9.9874e-01  4.9823e-01 -9.3492e+03  0:00:27   35
 temperature limited to 1.000000e+00 in 482 cells on zone 14524 in domain 1
 
 absolute pressure limited to 5.000000e+10 in 120457 cells on zone 14524 

 turbulent viscosity limited to viscosity ratio of 1.000000e+05 in 112746 cells 
   466  2.1714e+09  8.2514e-03  4.6841e-02  3.2657e-02  5.5446e-02  9.9647e-01  4.9710e-01 -9.9035e+03  0:00:26   34
 temperature limited to 1.000000e+00 in 383 cells on zone 14524 in domain 1
 
 absolute pressure limited to 5.000000e+10 in 120434 cells on zone 14524 

 turbulent viscosity limited to viscosity ratio of 1.000000e+05 in 112412 cells 
   467  2.1696e+09  8.2208e-03  4.8973e-02  3.0040e-02  5.6804e-02  9.9821e-01  4.9842e-01 -8.4208e+03  0:00:25   33
 temperature limited to 1.000000e+00 in 589 cells on zone 14524 in domain 1
 
 absolute pressure limited to 5.000000e+10 in 120428 cells on zone 14524 

 turbulent viscosity limited to viscosity ratio of 1.000000e+05 in 112548 cells 
   468  2.0719e+09  8.1460e-03  4.7136e-02  2.7413e-02  5.6125e-02  9.9784e-01  4.9817e-01 -9.3693e+03  0:00:24   32
 temperature limited to 1.000000e+00 in 799 cells on zone 14524 in domain 1
 
 absolute pressure limited to 5.000000e+10 in 120422 cells on zone 14524 

 turbulent viscosity limited to viscosity ratio of 1.000000e+05 in 112297 cells 
   469  2.1201e+09  8.1266e-03  4.5486e-02  2.8564e-02  5.1050e-02  9.9563e-01  4.9702e-01 -8.3036e+03  0:00:23   31
 temperature limited to 1.000000e+00 in 4521 cells on zone 14524 in domain 1
 
 absolute pressure limited to 5.000000e+10 in 120415 cells on zone 14524 

 turbulent viscosity limited to viscosity ratio of 1.000000e+05 in 112395 cells 
   470  2.2189e+09  7.7901e-03  4.4533e-02  2.7713e-02  5.0055e-02  9.9039e-01  4.9446e-01 -8.9738e+03  0:00:22   30
 temperature limited to 1.000000e+00 in 3522 cells on zone 14524 in domain 1
 
 absolute pressure limited to 5.000000e+10 in 120442 cells on zone 14524 

 turbulent viscosity limited to viscosity ratio of 1.000000e+05 in 112051 cells 
   471  2.2952e+09  7.9142e-03  4.4728e-02  2.7711e-02  4.6499e-02  9.7917e-01  4.8929e-01 -8.1507e+03  0:00:21   29
 temperature limited to 1.000000e+00 in 1098 cells on zone 14524 in domain 1
 
 absolute pressure limited to 5.000000e+10 in 120419 cells on zone 14524 

 turbulent viscosity limited to viscosity ratio of 1.000000e+05 in 112057 cells 
   472  2.2553e+09  7.5933e-03  4.3564e-02  2.5429e-02  5.1016e-02  9.8893e-01  4.8961e-01 -8.3741e+03  0:00:21   28
 temperature limited to 1.000000e+00 in 5186 cells on zone 14524 in domain 1
 
 absolute pressure limited to 5.000000e+10 in 120410 cells on zone 14524 

 turbulent viscosity limited to viscosity ratio of 1.000000e+05 in 112050 cells 
   473  2.1712e+09  8.3001e-03  4.6729e-02  2.5050e-02  4.8632e-02  9.8935e-01  4.9047e-01 -7.3894e+03  0:00:20   27
 temperature limited to 1.000000e+00 in 258 cells on zone 14524 in domain 1
 
 absolute pressure limited to 5.000000e+10 in 120411 cells on zone 14524 

 turbulent viscosity limited to viscosity ratio of 1.000000e+05 in 111987 cells 

  iter  continuity  x-velocity  y-velocity  z-velocity      energy           k       omega  report-def     time/iter
   474  2.2373e+09  8.4835e-03  4.4893e-02  2.8863e-02  5.0665e-02  9.8670e-01  4.8688e-01 -7.4765e+03  0:00:19   26
 temperature limited to 1.000000e+00 in 162 cells on zone 14524 in domain 1
  temperature limited to 5.000000e+03 in 169 cells on zone 14524 in domain 1
 
 absolute pressure limited to 5.000000e+10 in 120387 cells on zone 14524 

 turbulent viscosity limited to viscosity ratio of 1.000000e+05 in 111871 cells 
   475  2.3284e+09  7.9340e-03  4.2782e-02  2.9135e-02  5.2480e-02  9.9178e-01  4.8695e-01 -6.4883e+03  0:00:18   25
 temperature limited to 1.000000e+00 in 1923 cells on zone 14524 in domain 1
  temperature limited to 5.000000e+03 in 290 cells on zone 14524 in domain 1
 
 absolute pressure limited to 5.000000e+10 in 120397 cells on zone 14524 

 turbulent viscosity limited to viscosity ratio of 1.000000e+05 in 112178 cells 
   476  2.3930e+09  8.1243e-03  4.3804e-02  2.9612e-02  5.2365e-02  9.9358e-01  4.9127e-01 -6.8765e+03  0:00:18   24
 temperature limited to 1.000000e+00 in 9 cells on zone 14524 in domain 1
  temperature limited to 5.000000e+03 in 595 cells on zone 14524 in domain 1
 
 absolute pressure limited to 5.000000e+10 in 120388 cells on zone 14524 

 turbulent viscosity limited to viscosity ratio of 1.000000e+05 in 112177 cells 
   477  2.3948e+09  8.1182e-03  4.7272e-02  2.9686e-02  5.0263e-02  9.9490e-01  4.9331e-01 -5.6377e+03  0:00:17   23
 temperature limited to 1.000000e+00 in 525 cells on zone 14524 in domain 1
  temperature limited to 5.000000e+03 in 850 cells on zone 14524 in domain 1
  temperature limited to 5.000000e+03 on 18 faces

 absolute pressure limited to 5.000000e+10 in 120421 cells on zone 14524 

 turbulent viscosity limited to viscosity ratio of 1.000000e+05 in 112594 cells 
   478  2.3568e+09  8.1437e-03  4.5563e-02  3.2269e-02  5.0226e-02  9.8057e-01  4.8977e-01 -6.6978e+03  0:00:16   22
 temperature limited to 1.000000e+00 in 2155 cells on zone 14524 in domain 1
  temperature limited to 5.000000e+03 in 1328 cells on zone 14524 in domain 1
  temperature limited to 5.000000e+03 on 55 faces

 absolute pressure limited to 5.000000e+10 in 120397 cells on zone 14524 

 turbulent viscosity limited to viscosity ratio of 1.000000e+05 in 112562 cells 
   479  2.6030e+09  8.9034e-03  5.0628e-02  3.0327e-02  5.1766e-02  9.9706e-01  4.9637e-01 -5.8408e+03  0:00:15   21
 temperature limited to 1.000000e+00 in 4360 cells on zone 14524 in domain 1
  temperature limited to 5.000000e+03 in 2630 cells on zone 14524 in domain 1
  temperature limited to 5.000000e+03 on 113 faces

 absolute pressure limited to 5.000000e+10 in 120400 cells on zone 14524 

 turbulent viscosity limited to viscosity ratio of 1.000000e+05 in 112635 cells 
   480  2.6993e+09  8.5288e-03  5.2045e-02  3.0332e-02  5.3278e-02  9.9436e-01  4.9491e-01 -6.1825e+03  0:00:15   20
 temperature limited to 1.000000e+00 in 4691 cells on zone 14524 in domain 1
  temperature limited to 5.000000e+03 in 4764 cells on zone 14524 in domain 1
  temperature limited to 5.000000e+03 on 198 faces

 absolute pressure limited to 5.000000e+10 in 120409 cells on zone 14524 

 turbulent viscosity limited to viscosity ratio of 1.000000e+05 in 112387 cells 
   481  2.7139e+09  8.1975e-03  5.0342e-02  2.8952e-02  5.1502e-02  9.9759e-01  4.9735e-01 -6.8457e+03  0:00:14   19
 temperature limited to 1.000000e+00 in 5655 cells on zone 14524 in domain 1
  temperature limited to 5.000000e+03 in 458 cells on zone 14524 in domain 1
  temperature limited to 5.000000e+03 on 136 faces

 absolute pressure limited to 5.000000e+10 in 120404 cells on zone 14524 

 turbulent viscosity limited to viscosity ratio of 1.000000e+05 in 112618 cells 
   482  2.8690e+09  8.1173e-03  5.1603e-02  2.8996e-02  4.9288e-02  9.9894e-01  4.9868e-01 -7.2670e+03  0:00:13   18
 temperature limited to 1.000000e+00 in 6138 cells on zone 14524 in domain 1
  temperature limited to 5.000000e+03 in 5462 cells on zone 14524 in domain 1
  temperature limited to 5.000000e+03 on 29 faces

 absolute pressure limited to 5.000000e+10 in 120392 cells on zone 14524 

 turbulent viscosity limited to viscosity ratio of 1.000000e+05 in 112336 cells 
   483  3.0634e+09  7.7052e-03  4.8681e-02  2.8380e-02  4.5129e-02  9.9885e-01  4.9867e-01 -6.7327e+03  0:00:13   17
 temperature limited to 1.000000e+00 in 5713 cells on zone 14524 in domain 1
  temperature limited to 5.000000e+03 in 385 cells on zone 14524 in domain 1
  temperature limited to 5.000000e+03 on 67 faces

 absolute pressure limited to 5.000000e+10 in 120379 cells on zone 14524 

 turbulent viscosity limited to viscosity ratio of 1.000000e+05 in 112621 cells 
   484  2.9166e+09  7.1381e-03  4.5088e-02  2.8040e-02  5.5069e-02  9.9652e-01  4.9757e-01 -7.2140e+03  0:00:12   16
 temperature limited to 1.000000e+00 in 6375 cells on zone 14524 in domain 1
  temperature limited to 5.000000e+03 in 551 cells on zone 14524 in domain 1
  temperature limited to 5.000000e+03 on 110 faces

 absolute pressure limited to 5.000000e+10 in 120427 cells on zone 14524 

 turbulent viscosity limited to viscosity ratio of 1.000000e+05 in 112863 cells 

  iter  continuity  x-velocity  y-velocity  z-velocity      energy           k       omega  report-def     time/iter
   485  2.7560e+09  7.3094e-03  4.6097e-02  2.8370e-02  5.5637e-02  9.9791e-01  4.9797e-01 -7.5493e+03  0:00:11   15
 temperature limited to 1.000000e+00 in 8618 cells on zone 14524 in domain 1
  temperature limited to 5.000000e+03 in 1405 cells on zone 14524 in domain 1
  temperature limited to 5.000000e+03 on 146 faces

 absolute pressure limited to 5.000000e+10 in 120426 cells on zone 14524 

 turbulent viscosity limited to viscosity ratio of 1.000000e+05 in 113282 cells 
   486  3.1902e+09  7.2988e-03  4.5491e-02  2.9464e-02  4.8064e-02  9.9742e-01  4.9729e-01 -7.5330e+03  0:00:11   14
 temperature limited to 1.000000e+00 in 4552 cells on zone 14524 in domain 1
  temperature limited to 5.000000e+03 in 5443 cells on zone 14524 in domain 1
  temperature limited to 5.000000e+03 on 180 faces

 absolute pressure limited to 5.000000e+10 in 120405 cells on zone 14524 

 turbulent viscosity limited to viscosity ratio of 1.000000e+05 in 113369 cells 
   487  3.3385e+09  6.5684e-03  4.2099e-02  3.0753e-02  4.8037e-02  9.8896e-01  4.9335e-01 -8.8570e+03  0:00:10   13
 temperature limited to 1.000000e+00 in 13321 cells on zone 14524 in domain 1
  temperature limited to 5.000000e+03 in 615 cells on zone 14524 in domain 1
  temperature limited to 5.000000e+03 on 192 faces

 absolute pressure limited to 5.000000e+10 in 120394 cells on zone 14524 

 turbulent viscosity limited to viscosity ratio of 1.000000e+05 in 113444 cells 
   488  3.1618e+09  6.5770e-03  4.3116e-02  2.7094e-02  5.1603e-02  9.9896e-01  4.9825e-01 -8.9191e+03  0:00:09   12
 temperature limited to 1.000000e+00 in 12072 cells on zone 14524 in domain 1
  temperature limited to 5.000000e+03 in 3504 cells on zone 14524 in domain 1
  temperature limited to 5.000000e+03 on 99 faces

 absolute pressure limited to 5.000000e+10 in 120402 cells on zone 14524 

 turbulent viscosity limited to viscosity ratio of 1.000000e+05 in 112335 cells 
   489  3.4148e+09  6.8495e-03  4.2982e-02  2.5256e-02  4.4755e-02  9.9845e-01  4.9836e-01 -1.0393e+04  0:00:08   11
 temperature limited to 1.000000e+00 in 13749 cells on zone 14524 in domain 1
  temperature limited to 5.000000e+03 in 620 cells on zone 14524 in domain 1
  temperature limited to 5.000000e+03 on 8 faces

 absolute pressure limited to 5.000000e+10 in 120398 cells on zone 14524 

 turbulent viscosity limited to viscosity ratio of 1.000000e+05 in 112554 cells 
   490  3.4549e+09  6.5313e-03  4.4191e-02  2.5634e-02  4.2704e-02  9.9758e-01  4.9779e-01 -1.0622e+04  0:00:08   10
 temperature limited to 1.000000e+00 in 682 cells on zone 14524 in domain 1
  temperature limited to 5.000000e+03 in 678 cells on zone 14524 in domain 1
  temperature limited to 5.000000e+03 on 26 faces

 absolute pressure limited to 5.000000e+10 in 120411 cells on zone 14524 

 turbulent viscosity limited to viscosity ratio of 1.000000e+05 in 112416 cells 
   491  3.4639e+09  6.5386e-03  4.2707e-02  2.6281e-02  4.1112e-02  9.9411e-01  4.9523e-01 -1.2532e+04  0:00:07    9
 temperature limited to 1.000000e+00 in 14405 cells on zone 14524 in domain 1
  temperature limited to 5.000000e+03 in 420 cells on zone 14524 in domain 1
  temperature limited to 5.000000e+03 on 33 faces

 absolute pressure limited to 5.000000e+10 in 120424 cells on zone 14524 

 turbulent viscosity limited to viscosity ratio of 1.000000e+05 in 112455 cells 
   492  3.6732e+09  6.5783e-03  4.2246e-02  2.5137e-02  4.2951e-02  9.8079e-01  4.9176e-01 -1.2133e+04  0:00:06    8
 temperature limited to 1.000000e+00 in 1094 cells on zone 14524 in domain 1
  temperature limited to 5.000000e+03 in 685 cells on zone 14524 in domain 1
  temperature limited to 5.000000e+03 on 57 faces

 absolute pressure limited to 5.000000e+10 in 120391 cells on zone 14524 

 turbulent viscosity limited to viscosity ratio of 1.000000e+05 in 112542 cells 
   493  3.5068e+09  6.8506e-03  4.4249e-02  2.9619e-02  4.4897e-02  9.8912e-01  4.9309e-01 -1.4315e+04  0:00:05    7
 temperature limited to 1.000000e+00 in 14750 cells on zone 14524 in domain 1
  temperature limited to 5.000000e+03 in 671 cells on zone 14524 in domain 1
  temperature limited to 5.000000e+03 on 108 faces

 absolute pressure limited to 5.000000e+10 in 120416 cells on zone 14524 

 turbulent viscosity limited to viscosity ratio of 1.000000e+05 in 112646 cells 
   494  3.6732e+09  7.2129e-03  4.5988e-02  2.9885e-02  4.4107e-02  9.8794e-01  4.8904e-01 -1.4160e+04  0:00:04    6
 temperature limited to 1.000000e+00 in 112 cells on zone 14524 in domain 1
  temperature limited to 5.000000e+03 in 5 cells on zone 14524 in domain 1
  temperature limited to 5.000000e+03 on 70 faces

 absolute pressure limited to 5.000000e+10 in 120378 cells on zone 14524 

 turbulent viscosity limited to viscosity ratio of 1.000000e+05 in 113051 cells 
   495  4.0048e+09  7.1609e-03  4.7397e-02  2.9958e-02  4.3411e-02  9.8799e-01  4.8829e-01 -1.7159e+04  0:00:04    5
 temperature limited to 1.000000e+00 in 14753 cells on zone 14524 in domain 1
  temperature limited to 5.000000e+03 in 126 cells on zone 14524 in domain 1
 
 absolute pressure limited to 5.000000e+10 in 120361 cells on zone 14524 

 turbulent viscosity limited to viscosity ratio of 1.000000e+05 in 113019 cells 

  iter  continuity  x-velocity  y-velocity  z-velocity      energy           k       omega  report-def     time/iter
   496  3.9011e+09  6.8512e-03  4.6566e-02  3.2116e-02  4.3957e-02  9.9925e-01  4.9896e-01 -1.6246e+04  0:00:03    4
 temperature limited to 1.000000e+00 in 568 cells on zone 14524 in domain 1
  temperature limited to 5.000000e+03 in 4 cells on zone 14524 in domain 1
 
 absolute pressure limited to 5.000000e+10 in 120403 cells on zone 14524 

 turbulent viscosity limited to viscosity ratio of 1.000000e+05 in 113321 cells 
   497  3.8436e+09  7.0730e-03  4.6610e-02  3.0228e-02  4.0780e-02  9.9803e-01  4.9842e-01 -1.8786e+04  0:00:02    3
 temperature limited to 1.000000e+00 in 14706 cells on zone 14524 in domain 1
 
 absolute pressure limited to 5.000000e+10 in 120443 cells on zone 14524 

 turbulent viscosity limited to viscosity ratio of 1.000000e+05 in 113500 cells 
   498  4.1345e+09  6.9316e-03  4.6345e-02  2.8030e-02  3.7717e-02  9.9714e-01  4.9745e-01 -1.8182e+04  0:00:01    2
 temperature limited to 1.000000e+00 in 163 cells on zone 14524 in domain 1
  temperature limited to 5.000000e+03 in 42 cells on zone 14524 in domain 1
 
 absolute pressure limited to 5.000000e+10 in 120408 cells on zone 14524 

 turbulent viscosity limited to viscosity ratio of 1.000000e+05 in 113826 cells 
   499  4.1775e+09  6.9985e-03  4.7960e-02  2.6989e-02  3.9418e-02  9.8389e-01  4.9371e-01 -1.9421e+04  0:00:01    1
 temperature limited to 1.000000e+00 in 15139 cells on zone 14524 in domain 1
  temperature limited to 5.000000e+03 in 148 cells on zone 14524 in domain 1
 
 absolute pressure limited to 5.000000e+10 in 120396 cells on zone 14524 

 turbulent viscosity limited to viscosity ratio of 1.000000e+05 in 113876 cells 
   500  3.9641e+09  6.4317e-03  4.4687e-02  2.6695e-02  4.3351e-02  9.9572e-01  4.9530e-01 -1.6171e+04  0:00:00    0

> Halting due to end of file on input.
Auto-Transcript Stop Time:  19:33:20, 06 Nov 2024 
Total Transcript Time: 6 Minute 40 Second.

Automatic transcript closed.
