/opt/crc/a/ansys/2024R1/v241/fluent/fluent24.1.0/bin/fluent -r24.1.0 3ddp -t4 -g
/opt/crc/a/ansys/2024R1/v241/fluent/fluent24.1.0/cortex/lnamd64/cortex.24.1.0 -f fluent -g (fluent "3ddp -pshmem  -host -r24.1.0 -t4 -mpi=intel -path/opt/crc/a/ansys/2024R1/v241/fluent -ssh")

Opening input/output transcript to file "/tmp/927488.1.long/worker-241760-627617/task.79/fluent-20241106-192601-685885.trn".
Auto-Transcript Start Time:  19:26:01, 06 Nov 2024 
/opt/crc/a/ansys/2024R1/v241/fluent/fluent24.1.0/bin/fluent -r24.1.0 3ddp -pshmem -host -t4 -mpi=intel -path/opt/crc/a/ansys/2024R1/v241/fluent -ssh -cx d32cepyc229.crc.nd.edu:39267:42835
Starting /opt/crc/a/ansys/2024R1/v241/fluent/fluent24.1.0/lnamd64/3ddp_host/fluent.24.1.0 host -cx d32cepyc229.crc.nd.edu:39267:42835 "(list (rpsetvar (QUOTE parallel/function) "fluent 3ddp -flux -node -r24.1.0 -t4 -pshmem -mpi=intel -ssh") (rpsetvar (QUOTE parallel/rhost) "") (rpsetvar (QUOTE parallel/ruser) "") (rpsetvar (QUOTE parallel/nprocs_string) "4") (rpsetvar (QUOTE parallel/auto-spawn?) #t) (rpsetvar (QUOTE parallel/trace-level) 0) (rpsetvar (QUOTE parallel/remote-shell) 1) (rpsetvar (QUOTE parallel/path) "/opt/crc/a/ansys/2024R1/v241/fluent") (rpsetvar (QUOTE parallel/hostsfile) "") (rpsetvar (QUOTE gpuapp/devices) ""))"

              Welcome to ANSYS Fluent 2024 R1

              Copyright 1987-2024 ANSYS, Inc. All Rights Reserved.
              Unauthorized use, distribution or duplication is prohibited.
              This product is subject to U.S. laws governing export and re-export.
              For full Legal Notice, see documentation.

Build Time: Nov 22 2023 10:07:25 EST  Build Id: 10184  
 
Connected License Server List:	7504@linux5-lic.crc.nd.edu

     --------------------------------------------------------------
     This is an academic version of ANSYS FLUENT. Usage of this product
     license is limited to the terms and conditions specified in your ANSYS
     license form, additional terms section.
     --------------------------------------------------------------
Host spawning Node 0 on machine "d32cepyc229.crc.nd.edu" (unix).
/opt/crc/a/ansys/2024R1/v241/fluent/fluent24.1.0/bin/fluent -r24.1.0 3ddp -flux -node -t4 -pshmem -mpi=intel -ssh -mport 10.32.91.225:10.32.91.225:46595:0
Starting /opt/crc/a/ansys/2024R1/v241/fluent/fluent24.1.0/multiport/mpi/lnamd64/intel2021/bin/mpirun --rsh=ssh -f /tmp/fluent-appfile.etracey.686299 -genv I_MPI_FABRICS shm -genv FLUENT_ARCH lnamd64 -genv I_MPI_DEBUG 0 -genv I_MPI_ADJUST_GATHERV 3 -genv I_MPI_ADJUST_ALLREDUCE 2 -genv I_MPI_PLATFORM auto -genv PYTHONHOME /opt/crc/a/ansys/2024R1/v241/fluent/fluent24.1.0/../../commonfiles/CPython/3_10/linx64/Release/python -genv FLUENT_PROD_DIR /opt/crc/a/ansys/2024R1/v241/fluent/fluent24.1.0 -genv FLUENT_AFFINITY 0 -genv I_MPI_PIN enable -genv KMP_AFFINITY disabled -n 4 /opt/crc/a/ansys/2024R1/v241/fluent/fluent24.1.0/lnamd64/3ddp_node/fluent_mpi.24.1.0 node -mpiw intel -pic shmem -mport 10.32.91.225:10.32.91.225:46595:0

----------------------------------------------------------------------------------
ID    Hostname              Core  O.S.      PID            Vendor                
----------------------------------------------------------------------------------
n0-3  d32cepyc229.crc.nd.e  4/64  Linux-64  686353-686356  AMD EPYC 7543 32-Core 
host  d32cepyc229.crc.nd.e        Linux-64  686095         AMD EPYC 7543 32-Core 

MPI Option Selected: intel
Selected system interconnect: shared-memory
----------------------------------------------------------------------------------


Initializing SGE
Done.
Cleanup script file is /tmp/927488.1.long/worker-241760-627617/task.79/cleanup-fluent-d32cepyc229.crc.nd.edu-686095.sh
Key Behavioral Changes:
Fluent Guided Meshing Workflows: 
Workflow template files (.wft) are now saved by default whenever the mesh is saved. You can change the automatic creation of .wft files in Preferences. 
Journaling: 
When Ansys Fluent encounters an invalid input in a journal file that is being replayed, it now raises an error condition and aborts the journal processing. 
Turbulence: 
The value of kappa used in the Spalart-Allmaras model for interior terms was inconsistent with the reference publications of the model. Fluent historically used a value of 0.4187, but to produce results consistent with the published model, the value should be 0.41. This issue was first addressed in a previous Fluent version and access to the kappa value was given in the GUI while keeping the old default of 0.4187. In Fluent 2024 R1, the default value is now changed to 0.41. 
Turbomachinery: 
For Blade Film Cooling, you can now specify stationary holes on the surfaces of a moving/rotating cell zone in transient cases. 
Boundaries previously referred to as "casings" in the Turbo Topology definition are now referred to as "shrouds." 
Density-Based Solver: 
The High Speed Numerics have been updated to increase the robustness of the Roe-FDS numerical flux against shock-instabilities and the carbuncle phenomenon. This modification may produce a slight solution change for cases combining Roe-FDS and HSN. 
Multiphase Models: 
Modeling of open channel flows in conjunction with the translation moving reference frame (MRF) has been improved resulting in more accurate and stable solution. In addition, a solution methodology has been suggested to provide better stability for high-speed hull simulations. 
Parallel Processing: 
Using dynamic process spawning now requires that you manually specify the interconnect as -pethernet for shared memory or distributed memory without InfiniBand, and -pib.ofed for distributed memory over InfiniBand. 
Refer to the Ansys, Inc. Release Notes for a full listing of the new features included in Ansys Fluent 2024 R1. 
 +------------------------------------------------------------------+
 |                    ANSYS Product Improvement                     |
 |                                                                  |
 |   ANSYS Product Improvement Program helps improve ANSYS          |
 |   products. Participating in this program is like filling out a  |
 |   survey. Without interrupting your work, the software reports   |
 |   anonymous usage information such as errors, machine and        |
 |   solver statistics, features used, etc. to ANSYS. We never      |
 |   use the data to identify or contact you.                       |
 |   The data does NOT contain:                                     |
 |   - Any personally identifiable information including names,     |
 |     IP addresses, file names, part names, etc.                   |
 |   - Any information about your geometry or design specific       |
 |     inputs.                                                      |
 |   You can stop participation at any time. To change your         |
 |   selection go to Help >> ANSYS Product Improvement Program      |
 |   in the GUI.                                                    |
 |   For more information about the ANSYS Privacy Policy, please    |
 |   check: http://www.ansys.com/privacy                            |
 |                                                                  |
 +------------------------------------------------------------------+

> Fast-loading "/opt/crc/a/ansys/2024R1/v241/fluent/fluent24.1.0/addons/afd/lib/hdfio.bin"
Done.
WARNING: Rank:0 Machine d32cepyc229.crc.nd.edu has 67 % of RAM filled with file buffer caches.
This can cause potential performance issues. Please use -cflush flag to flush the cache. 


Reading from d32cepyc229.crc.nd.edu:"/tmp/927488.1.long/worker-241760-627617/task.79/case.cas.h5" in NODE0 mode ...
  Reading mesh ...
      120642 cells,     1 cell zone  ...
         120642 polyhedra cells,  zone id: 14524
      689887 faces,     7 face zones ...
           5762 polygonal symmetry faces,  zone id: 41
           5844 polygonal symmetry faces,  zone id: 42
            464 polygonal pressure-far-field faces,  zone id: 43
            458 polygonal pressure-far-field faces,  zone id: 44
           1892 polygonal pressure-far-field faces,  zone id: 45
          13363 polygonal wall faces,  zone id: 46
         662104 polygonal interior faces,  zone id: 14523
      501605 nodes,     1 node zone  ...
  Done.


Building...
     mesh
	auto partitioning mesh by Metis (fast),
	distributing mesh
		parts....,
		faces....,
		nodes....,
		cells....,
        bandwidth reduction using Reverse Cuthill-McKee: 30663/2131 = 14.389
  Reading boundary layer flags ...
  Done.

     materials,
     interface,
     domains,
	mixture
     zones,
	symmetry1
	symmetry2
	inlet
	outlet
	farfield
	launchvehicle
	interior--flowfield
	flowfield
     parallel,
Done.

> adjoint/                parallel/               server/
define/                 parametric-study/       solve/
display/                plot/                   surface/
exit                    preferences/            turbo-workflow/
file/                   print-license-usage     views/
mesh/                   report/

> 
> adjoint/                parallel/               server/
define/                 parametric-study/       solve/
display/                plot/                   surface/
exit                    preferences/            turbo-workflow/
file/                   print-license-usage     views/
mesh/                   report/

> 
> adjoint/                parallel/               server/
define/                 parametric-study/       solve/
display/                plot/                   surface/
exit                    preferences/            turbo-workflow/
file/                   print-license-usage     views/
mesh/                   report/

> air is a fluid

Density
no data required.


> adjoint/                parallel/               server/
define/                 parametric-study/       solve/
display/                plot/                   surface/
exit                    preferences/            turbo-workflow/
file/                   print-license-usage     views/
mesh/                   report/

> (farfield outlet inlet)

> (farfield outlet inlet)

> (farfield outlet inlet)

> adjoint/                parallel/               server/
define/                 parametric-study/       solve/
display/                plot/                   surface/
exit                    preferences/            turbo-workflow/
file/                   print-license-usage     views/
mesh/                   report/

> (launchvehicle)

> adjoint/                parallel/               server/
define/                 parametric-study/       solve/
display/                plot/                   surface/
exit                    preferences/            turbo-workflow/
file/                   print-license-usage     views/
mesh/                   report/

> 
> 
> 
> 
> 
> 
> adjoint/                parallel/               server/
define/                 parametric-study/       solve/
display/                plot/                   surface/
exit                    preferences/            turbo-workflow/
file/                   print-license-usage     views/
mesh/                   report/

> 
> 
> 
> adjoint/                parallel/               server/
define/                 parametric-study/       solve/
display/                plot/                   surface/
exit                    preferences/            turbo-workflow/
file/                   print-license-usage     views/
mesh/                   report/

> 
> 
> 
> adjoint/                parallel/               server/
define/                 parametric-study/       solve/
display/                plot/                   surface/
exit                    preferences/            turbo-workflow/
file/                   print-license-usage     views/
mesh/                   report/

> 
> adjoint/                parallel/               server/
define/                 parametric-study/       solve/
display/                plot/                   surface/
exit                    preferences/            turbo-workflow/
file/                   print-license-usage     views/
mesh/                   report/

> 
Initialize using the hybrid initialization method.

Checking case topology... 
-This case has multiple farfield bc 
-Case will be initialized with constant parameters

	iter		scalar-0

	1		1.000000e+00
	2		7.087625e-04
	3		9.797622e-05
	4		1.350874e-05
	5		2.799336e-06
	6		6.031940e-07
	7		1.342683e-07
	8		3.179807e-08
	9		8.979038e-09
	10		3.269783e-09

Hybrid initialization is done.

Note: Settings to improve the robustness of pathline and
      particle tracking have been automatically enabled.


> 
  iter  continuity  x-velocity  y-velocity  z-velocity      energy           k       omega  report-def     time/iter
     1  1.0000e+00  1.0852e-03  1.1881e-03  1.6176e-03  1.0665e-05  9.5637e-01  4.8792e-01  4.3498e+00  0:05:50  499
     2  1.0000e+00  1.8952e-03  3.3692e-03  1.5716e-03  4.6761e-05  9.1977e-01  4.7868e-01  6.1830e+00  0:05:55  498
     3  1.0000e+00  2.1124e-03  3.6573e-03  2.5219e-03  5.5101e-05  8.5894e-01  4.6810e-01  5.9389e+00  0:05:58  497
     4  1.0000e+00  2.9229e-03  6.9680e-03  1.6968e-03  9.4839e-05  8.7434e-01  4.3449e-01  5.6901e+00  0:06:01  496
     5  1.0000e+00  3.1022e-03  8.7930e-03  6.2049e-03  4.3870e-04  8.8936e-01  4.1850e-01  4.9365e+00  0:06:03  495
     6  1.2555e+00  9.7382e-03  1.9203e-02  4.5374e-03  2.3534e-04  8.8442e-01  3.7927e-01  4.5695e+00  0:06:05  494
     7  1.3655e+00  8.0225e-03  1.2576e-02  6.0254e-03  5.4758e-04  8.1811e-01  3.7201e-01  4.2888e+00  0:06:05  493
     8  1.6872e+00  1.3759e-02  2.5685e-02  5.6394e-03  5.3530e-04  8.0494e-01  3.7123e-01  4.2403e+00  0:06:06  492
     9  1.5696e+00  1.5723e-02  1.7215e-02  5.6086e-03  5.8945e-04  7.3718e-01  3.5648e-01  3.1558e+00  0:06:07  491
    10  1.7737e+00  1.4494e-02  3.4196e-02  6.8000e-03  8.3912e-04  7.9628e-01  4.0355e-01  2.6618e+00  0:06:07  490
    11  2.0125e+00  2.6440e-02  2.7032e-02  6.9878e-03  1.0625e-03  9.2546e-01  4.6516e-01  2.2381e+00  0:06:07  489

  iter  continuity  x-velocity  y-velocity  z-velocity      energy           k       omega  report-def     time/iter
    12  2.0011e+00  1.7134e-02  4.3266e-02  7.2202e-03  9.5293e-04  8.1118e-01  4.2616e-01  1.7772e+00  0:06:07  488
    13  2.0792e+00  2.7287e-02  3.6353e-02  7.5580e-03  1.1579e-03  8.9370e-01  4.4145e-01  1.7157e+00  0:06:07  487
    14  2.3169e+00  2.3818e-02  4.9584e-02  8.9638e-03  1.5317e-03  8.1149e-01  4.4593e-01  7.5089e-01  0:06:07  486
    15  2.5619e+00  4.1697e-02  4.9853e-02  1.0799e-02  1.7847e-03  9.7647e-01  4.9428e-01  1.5583e+00  0:06:06  485
    16  2.5488e+00  2.4600e-02  5.5231e-02  1.0301e-02  1.9422e-03  8.2116e-01  4.5718e-01 -6.2359e-02  0:06:07  484
    17  3.0431e+00  4.9773e-02  5.9058e-02  1.5711e-02  3.7397e-03  1.0008e+00  5.4115e-01  8.6765e-01  0:06:07  483
    18  2.7532e+00  3.0057e-02  7.0418e-02  1.3903e-02  3.1407e-03  8.4800e-01  4.6566e-01 -3.9185e-01  0:06:06  482
    19  3.3673e+00  6.6820e-02  6.2941e-02  1.7344e-02  4.3533e-03  1.1539e+00  6.6414e-01 -2.7136e-01  0:06:05  481
    20  3.0572e+00  3.9811e-02  8.1816e-02  1.8606e-02  6.2408e-03  9.2425e-01  5.0467e-01 -1.3433e+00  0:06:05  480
    21  3.3456e+00  7.1767e-02  6.8325e-02  2.0454e-02  5.1370e-03  1.1391e+00  5.8815e-01 -1.4565e+00  0:06:04  479
    22  3.4294e+00  4.7865e-02  8.7199e-02  2.1729e-02  5.6646e-03  9.4427e-01  4.8847e-01 -1.8070e+00  0:06:04  478

  iter  continuity  x-velocity  y-velocity  z-velocity      energy           k       omega  report-def     time/iter
    23  3.5803e+00  7.8689e-02  7.0241e-02  2.2739e-02  4.5845e-03  1.0818e+00  5.6415e-01 -2.0629e+00  0:06:06  477
    24  3.5475e+00  6.4673e-02  9.7565e-02  2.4261e-02  3.6625e-03  9.3851e-01  4.9950e-01 -1.8810e+00  0:06:05  476
    25  3.8005e+00  7.6775e-02  8.1515e-02  2.3763e-02  6.0572e-03  9.8992e-01  5.2791e-01 -2.8314e+00  0:06:03  475
    26  3.7830e+00  7.5614e-02  8.6882e-02  2.5172e-02  9.7183e-03  8.9314e-01  4.8948e-01 -2.5283e+00  0:06:02  474
    27  4.0652e+00  9.9957e-02  7.0907e-02  2.5287e-02  9.8818e-03  1.3472e+00  7.3204e-01 -3.5529e+00  0:06:02  473
    28  4.1078e+00  9.5019e-02  8.4868e-02  2.5002e-02  6.3847e-03  9.7571e-01  5.0363e-01 -3.0293e+00  0:06:00  472
    29  4.2086e+00  8.6573e-02  7.5959e-02  2.3959e-02  7.5128e-03  1.0340e+00  5.5120e-01 -4.8870e+00  0:05:59  471
    30  4.5918e+00  9.7673e-02  7.5048e-02  2.5024e-02  7.6229e-03  9.8012e-01  5.2617e-01 -2.9647e+00  0:05:58  470
    31  4.6108e+00  9.2113e-02  8.0327e-02  2.5058e-02  7.8790e-03  1.0040e+00  5.1542e-01 -2.9370e+00  0:05:57  469
    32  4.6823e+00  8.1823e-02  1.0383e-01  2.4666e-02  7.4687e-03  9.8697e-01  5.2744e-01 -1.2678e+00  0:05:56  468
    33  4.4619e+00  9.1733e-02  8.2254e-02  2.5347e-02  6.8384e-03  1.0427e+00  5.5072e-01 -1.5368e+00  0:05:56  467

  iter  continuity  x-velocity  y-velocity  z-velocity      energy           k       omega  report-def     time/iter
    34  4.9943e+00  8.5496e-02  9.1316e-02  2.5032e-02  6.4846e-03  1.0047e+00  5.1367e-01 -1.8623e-01  0:05:55  466
    35  4.9040e+00  8.3465e-02  8.8564e-02  2.6428e-02  3.9451e-02  9.7927e-01  5.0835e-01 -2.7444e-01  0:05:54  465
    36  5.3467e+00  7.9427e-02  1.4735e-01  2.9285e-02  1.4088e-02  9.4433e-01  5.0483e-01  1.6131e+00  0:05:53  464
    37  5.0896e+00  8.8485e-02  8.5379e-02  2.5356e-02  1.0624e-02  9.0659e-01  5.0185e-01  8.2936e-01  0:05:53  463
    38  5.5749e+00  1.0220e-01  8.8076e-02  2.7762e-02  1.1075e-02  1.2167e+00  6.4549e-01  1.3983e+00  0:05:52  462
    39  5.7728e+00  9.3959e-02  9.0777e-02  2.8250e-02  8.6004e-03  1.0081e+00  5.3999e-01  2.5424e-01  0:05:52  461
    40  6.2470e+00  1.0886e-01  9.1715e-02  2.7389e-02  6.8618e-02  9.8266e-01  5.1413e-01  4.8430e-01  0:05:52  460
    41  6.1281e+00  1.5720e-01  7.3635e-02  2.7503e-02  1.5207e-02  9.6009e-01  5.0933e-01  7.0931e-01  0:05:51  459
    42  6.9127e+00  1.1293e-01  8.8870e-02  2.7880e-02  1.1007e-02  1.1797e+00  6.2662e-01  1.4579e+00  0:05:50  458
    43  6.4343e+00  8.8523e-02  8.9812e-02  2.7171e-02  1.1167e-02  9.6082e-01  4.9167e-01  5.6804e-01  0:05:49  457
    44  7.4194e+00  1.0514e-01  1.0347e-01  3.2828e-02  1.0743e-02  1.0935e+00  5.5422e-01  1.3277e+00  0:05:48  456

  iter  continuity  x-velocity  y-velocity  z-velocity      energy           k       omega  report-def     time/iter
    45  6.7970e+00  9.2408e-02  8.4332e-02  2.8746e-02  9.4566e-03  9.5117e-01  4.9816e-01  2.7011e+00  0:05:48  455
    46  7.8718e+00  1.1033e-01  1.0156e-01  3.1929e-02  1.3656e-02  1.1908e+00  6.2041e-01  2.0443e+00  0:05:47  454
    47  7.6374e+00  8.3306e-02  8.5510e-02  2.6126e-02  1.0524e-02  9.9184e-01  5.1276e-01  3.5014e+00  0:05:45  453
    48  8.2037e+00  9.9486e-02  8.5657e-02  2.6786e-02  1.9892e-02  1.1099e+00  5.8254e-01  1.8184e+00  0:05:45  452
    49  8.1143e+00  1.0639e-01  8.2697e-02  3.0912e-02  1.2690e-02  9.8852e-01  5.1278e-01  2.1085e+00  0:05:43  451
    50  9.4850e+00  1.2201e-01  1.0150e-01  3.5188e-02  1.5281e-02  1.0106e+00  5.2541e-01  3.2611e+00  0:05:42  450
    51  8.4829e+00  8.7731e-02  7.9661e-02  2.8105e-02  1.1014e-02  9.5855e-01  5.0453e-01  6.9695e+00  0:05:41  449
    52  9.4229e+00  1.0244e-01  9.4160e-02  3.1543e-02  1.6834e-02  1.1046e+00  5.6633e-01  3.4707e+00  0:05:40  448
    53  8.8415e+00  9.0546e-02  7.8699e-02  2.9560e-02  1.4248e-02  1.0027e+00  5.1939e-01  4.0444e+00  0:05:40  447
    54  1.0404e+01  1.1571e-01  1.0725e-01  3.4891e-02  1.6270e-02  1.0482e+00  5.6060e-01  3.7234e+00  0:05:39  446
    55  9.3834e+00  8.4308e-02  8.4862e-02  2.7115e-02  1.7844e-02  1.0435e+00  5.5342e-01  5.7532e+00  0:05:38  445

  iter  continuity  x-velocity  y-velocity  z-velocity      energy           k       omega  report-def     time/iter
    56  1.0468e+01  1.0977e-01  8.3721e-02  2.8905e-02  1.4451e-02  1.0110e+00  5.2205e-01  4.0853e+00  0:05:39  444
    57  1.0146e+01  8.5915e-02  8.9814e-02  2.9901e-02  1.7812e-02  1.0259e+00  5.3550e-01  5.1020e+00  0:05:38  443
    58  1.1355e+01  1.2204e-01  1.0248e-01  3.3773e-02  1.6476e-02  1.0028e+00  5.1637e-01  7.8860e+00  0:05:36  442
    59  1.0338e+01  8.8562e-02  8.8129e-02  2.8039e-02  1.4754e-02  1.0348e+00  5.3181e-01  6.9977e+00  0:05:35  441
    60  1.1462e+01  1.0769e-01  9.6965e-02  3.1855e-02  1.7610e-02  1.1042e+00  5.7632e-01  3.8078e+00  0:05:34  440
    61  1.0993e+01  8.7558e-02  8.3758e-02  2.9962e-02  1.6906e-02  9.9531e-01  5.1224e-01  5.7108e+00  0:05:34  439
    62  1.1787e+01  1.0227e-01  1.0403e-01  3.0873e-02  1.8306e-02  1.0319e+00  5.3502e-01  8.9217e+00  0:05:33  438
    63  1.1730e+01  7.8876e-02  8.9993e-02  2.8899e-02  2.1459e-02  1.0252e+00  5.3092e-01  8.5089e+00  0:05:32  437
    64  1.2530e+01  1.0811e-01  7.9787e-02  3.0944e-02  1.8569e-02  1.0513e+00  5.3775e-01  1.5568e+00  0:05:31  436
    65  1.2400e+01  7.6289e-02  8.7043e-02  2.7047e-02  2.0599e-02  1.0357e+00  5.4543e-01  5.3132e+00  0:05:30  435
    66  1.3699e+01  1.1453e-01  9.8289e-02  3.3786e-02  1.8892e-02  1.0263e+00  5.2514e-01  7.2757e+00  0:05:29  434

  iter  continuity  x-velocity  y-velocity  z-velocity      energy           k       omega  report-def     time/iter
    67  1.3006e+01  8.8464e-02  8.6699e-02  2.9588e-02  1.7861e-02  1.0108e+00  5.1833e-01  4.4530e+00  0:05:29  433
    68  1.3898e+01  1.0410e-01  9.1349e-02  3.1925e-02  2.0154e-02  1.0270e+00  5.2159e-01  1.8563e+00  0:05:28  432
    69  1.3971e+01  8.3346e-02  9.0478e-02  3.0766e-02  2.0491e-02  1.0204e+00  5.2155e-01  7.1305e+00  0:05:27  431
    70  1.4532e+01  9.8266e-02  9.5385e-02  3.1307e-02  1.9888e-02  1.0167e+00  5.2345e-01  9.8525e+00  0:05:26  430
    71  1.4790e+01  8.9186e-02  8.5705e-02  2.8873e-02  3.7138e-02  1.0634e+00  5.5296e-01  6.4691e+00  0:05:26  429
    72  1.5330e+01  9.9437e-02  8.4406e-02  2.8784e-02  2.1324e-02  1.0268e+00  5.3155e-01 -1.1845e-01  0:05:25  428
    73  1.5771e+01  8.1448e-02  8.7806e-02  3.0065e-02  2.2658e-02  1.0488e+00  5.4229e-01  7.5613e+00  0:05:24  427
    74  1.6207e+01  8.5247e-02  9.5003e-02  2.8831e-02  3.1202e-02  1.0261e+00  5.3209e-01  6.6006e+00  0:05:23  426
    75  1.7007e+01  1.0306e-01  8.5205e-02  3.1763e-02  3.0348e-02  1.0233e+00  5.2857e-01  3.1849e+00  0:05:23  425
    76  1.6674e+01  9.6210e-02  8.5091e-02  2.8993e-02  2.7817e-02  1.0339e+00  5.2408e-01  3.5797e-01  0:05:22  424
    77  1.7333e+01  1.0003e-01  8.1179e-02  2.9344e-02  2.7126e-02  1.0397e+00  5.2864e-01  8.0231e+00  0:05:21  423

  iter  continuity  x-velocity  y-velocity  z-velocity      energy           k       omega  report-def     time/iter
    78  1.7593e+01  9.4715e-02  9.4879e-02  2.9238e-02  2.1267e-02  1.0402e+00  5.3110e-01  1.1136e+01  0:05:20  422
    79  1.7880e+01  9.5785e-02  8.6556e-02  3.1108e-02  2.9453e-02  1.0400e+00  5.4059e-01  8.2005e+00  0:05:20  421
    80  1.8247e+01  8.2503e-02  8.4892e-02  2.7631e-02  2.3668e-02  1.0191e+00  5.1985e-01  2.5027e+00  0:05:20  420
    81  1.8908e+01  8.0055e-02  9.2029e-02  2.9376e-02  1.9048e-02  1.0588e+00  5.4047e-01  1.2398e+01  0:05:18  419
    82  1.9734e+01  8.8875e-02  9.8125e-02  3.0065e-02  2.6245e-02  1.0651e+00  5.4655e-01  1.5494e+01  0:05:17  418
    83  1.9411e+01  8.8550e-02  8.4059e-02  2.8814e-02  2.7082e-02  1.0242e+00  5.2320e-01  1.4871e+01  0:05:17  417
    84  2.1302e+01  9.4793e-02  9.1705e-02  3.1678e-02  3.0330e-02  1.0606e+00  5.4265e-01  1.4897e+01  0:05:16  416
    85  2.0636e+01  9.3148e-02  7.7778e-02  2.8897e-02  2.8113e-02  1.0179e+00  5.1841e-01  2.1751e+01  0:05:15  415
    86  2.1989e+01  9.8286e-02  9.9656e-02  3.0729e-02  2.3563e-02  1.0456e+00  5.3551e-01  2.6083e+01  0:05:16  414
    87  2.0654e+01  8.9346e-02  8.5117e-02  2.9918e-02  2.7917e-02  9.9858e-01  5.1707e-01  2.3418e+01  0:05:15  413
    88  2.3150e+01  9.0477e-02  9.1341e-02  3.2534e-02  3.2927e-02  1.0732e+00  5.3649e-01  1.3962e+01  0:05:14  412

  iter  continuity  x-velocity  y-velocity  z-velocity      energy           k       omega  report-def     time/iter
    89  2.2766e+01  8.1694e-02  9.1795e-02  2.9538e-02  2.6764e-02  1.0473e+00  5.3365e-01  1.6123e+01  0:05:13  411
    90  2.4836e+01  1.0253e-01  1.0242e-01  3.2618e-02  3.5109e-02  1.0668e+00  5.5008e-01  1.5682e+01  0:05:12  410
    91  2.2318e+01  8.7022e-02  8.1055e-02  2.9108e-02  2.2978e-02  1.0163e+00  5.2048e-01  1.5769e+01  0:05:11  409
    92  2.5179e+01  1.0017e-01  1.0672e-01  3.5999e-02  3.1368e-02  1.0495e+00  5.3802e-01  4.5991e+00  0:05:10  408
    93  2.3134e+01  9.7563e-02  8.1953e-02  3.2029e-02  2.4687e-02  9.9241e-01  5.0332e-01  5.8162e+00  0:05:10  407
    94  2.6384e+01  1.0179e-01  1.0792e-01  3.3570e-02  3.3026e-02  1.1343e+00  5.5251e-01 -8.1502e-01  0:05:09  406
    95  2.3698e+01  8.8982e-02  8.5752e-02  3.1735e-02  2.5199e-02  1.0104e+00  5.1293e-01 -4.2262e+00  0:05:08  405
    96  2.8480e+01  9.4563e-02  1.0069e-01  3.5051e-02  3.6476e-02  1.1264e+00  5.6885e-01 -1.7248e+01  0:05:07  404
    97  2.4696e+01  7.4032e-02  8.4474e-02  3.0076e-02  2.6525e-02  1.0207e+00  5.1953e-01 -1.8192e+01  0:05:07  403
    98  3.1035e+01  1.0455e-01  9.7700e-02  3.4758e-02  4.0533e-02  1.0640e+00  5.4252e-01 -2.5936e+01  0:05:06  402
    99  2.6753e+01  7.7006e-02  7.9169e-02  2.7943e-02  2.7556e-02  1.0258e+00  5.2597e-01 -2.6881e+01  0:05:05  401

  iter  continuity  x-velocity  y-velocity  z-velocity      energy           k       omega  report-def     time/iter
   100  3.1321e+01  8.6728e-02  1.0302e-01  3.6046e-02  4.1355e-02  1.0839e+00  5.5403e-01 -3.9647e+01  0:05:04  400
   101  2.7647e+01  8.6887e-02  8.5316e-02  2.9589e-02  2.4851e-02  9.9177e-01  5.0123e-01 -2.3135e+01  0:05:03  399
   102  3.2700e+01  1.0633e-01  1.0645e-01  3.7291e-02  3.3179e-02  1.1235e+00  5.5597e-01 -1.9500e+01  0:05:02  398
   103  2.8731e+01  8.0605e-02  8.6548e-02  3.1592e-02  2.9869e-02  1.0094e+00  5.1166e-01 -6.4262e+00  0:05:01  397
   104  3.3837e+01  1.0319e-01  1.1150e-01  3.8705e-02  3.9441e-02  1.0577e+00  5.3213e-01 -3.7844e+00  0:05:01  396
   105  2.8591e+01  8.0200e-02  9.7505e-02  3.1640e-02  2.8974e-02  1.0431e+00  5.2943e-01  8.6797e+00  0:05:00  395
   106  3.3409e+01  1.0271e-01  1.1043e-01  3.8425e-02  3.5033e-02  1.0694e+00  5.4604e-01  1.2796e+01  0:05:00  394
   107  2.9754e+01  8.3814e-02  8.7930e-02  3.0464e-02  3.4886e-02  1.0072e+00  5.1436e-01  1.5180e+01  0:04:59  393
   108  3.3846e+01  9.7496e-02  1.1089e-01  3.6458e-02  4.2536e-02  1.0818e+00  5.4890e-01  9.3814e+00  0:04:58  392
   109  3.0544e+01  9.3565e-02  7.9456e-02  3.0289e-02  3.0319e-02  9.9704e-01  5.0381e-01  2.2099e+01  0:04:58  391
   110  3.5529e+01  9.8073e-02  1.1387e-01  3.5518e-02  4.8648e-02  1.0921e+00  5.3987e-01  1.5709e+01  0:04:57  390

  iter  continuity  x-velocity  y-velocity  z-velocity      energy           k       omega  report-def     time/iter
   111  3.0491e+01  1.0287e-01  8.7760e-02  3.0952e-02  3.3885e-02  1.0521e+00  5.3520e-01  8.1045e+00  0:04:57  389
   112  3.6749e+01  1.0794e-01  1.0768e-01  3.7961e-02  4.2045e-02  1.0574e+00  5.3887e-01  9.2882e+00  0:04:56  388
   113  3.1843e+01  8.9470e-02  8.7908e-02  3.0991e-02  3.7367e-02  1.0309e+00  5.2737e-01  2.0256e+00  0:04:55  387
   114  3.7030e+01  1.1691e-01  1.1156e-01  3.6554e-02  3.3531e-02  1.0347e+00  5.2623e-01 -5.7133e+00  0:04:56  386
   115  3.1260e+01  9.7725e-02  8.3007e-02  3.2755e-02  2.5421e-02  1.0060e+00  5.0927e-01 -1.7939e+01  0:04:56  385
   116  3.7149e+01  1.0771e-01  1.0666e-01  3.7348e-02  3.2229e-02  1.0865e+00  5.4213e-01 -2.0860e+01  0:04:55  384
   117  3.3421e+01  9.1198e-02  8.5639e-02  3.2017e-02  2.4581e-02  1.0032e+00  5.0714e-01 -2.0351e+01  0:04:54  383
   118  3.9586e+01  9.0623e-02  1.0386e-01  3.3867e-02  3.0260e-02  1.1316e+00  5.5876e-01 -3.4463e+01  0:04:53  382
   119  3.2732e+01  8.3113e-02  7.8433e-02  2.9294e-02  2.7652e-02  1.0110e+00  5.1215e-01 -5.2103e+01  0:04:51  381
   120  3.9363e+01  9.3381e-02  1.0498e-01  3.5589e-02  3.9448e-02  1.0749e+00  5.4350e-01 -4.3878e+01  0:04:51  380
   121  3.5486e+01  7.4614e-02  9.2701e-02  2.9551e-02  2.8573e-02  1.0132e+00  5.1178e-01 -3.0671e+01  0:04:49  379

  iter  continuity  x-velocity  y-velocity  z-velocity      energy           k       omega  report-def     time/iter
   122  4.2008e+01  1.1056e-01  1.0086e-01  3.6842e-02  3.4527e-02  1.1283e+00  5.6671e-01 -2.9953e+01  0:04:49  378
   123  3.4838e+01  8.7800e-02  8.5171e-02  3.2875e-02  3.0767e-02  1.0074e+00  5.1021e-01 -3.4070e+01  0:04:48  377
   124  4.0050e+01  1.1195e-01  1.0139e-01  3.8846e-02  4.8143e-02  1.0989e+00  5.5518e-01 -2.4929e+01  0:04:47  376
   125  3.9034e+01  1.0183e-01  7.9132e-02  3.3433e-02  3.3824e-02  1.0092e+00  5.1180e-01 -4.1577e+00  0:04:46  375
   126  4.4842e+01  8.6749e-02  1.1434e-01  3.5823e-02  3.0028e-02  1.0813e+00  5.4163e-01  3.0235e-01  0:04:45  374
   127  3.6586e+01  9.6071e-02  8.2472e-02  3.3479e-02  2.9192e-02  1.0274e+00  5.2284e-01 -1.0257e+01  0:04:44  373
   128  4.3069e+01  9.6591e-02  1.0814e-01  3.6984e-02  5.3356e-02  1.0587e+00  5.3763e-01 -6.2455e+00  0:04:43  372
   129  3.9738e+01  8.0975e-02  9.1705e-02  3.0617e-02  2.3651e-02  1.0129e+00  5.1238e-01 -5.8475e-01  0:04:43  371
   130  4.7989e+01  1.0946e-01  1.0521e-01  3.9813e-02  4.1722e-02  1.0404e+00  5.2313e-01  6.1923e+00  0:04:42  370
   131  4.0558e+01  8.4670e-02  9.0111e-02  3.2121e-02  2.9356e-02  1.0163e+00  5.1600e-01 -7.9403e-01  0:04:41  369
   132  4.5031e+01  1.1072e-01  1.0037e-01  3.9060e-02  5.6845e-02  1.1896e+00  5.9236e-01 -1.1788e+00  0:04:40  368

  iter  continuity  x-velocity  y-velocity  z-velocity      energy           k       omega  report-def     time/iter
   133  4.3614e+01  1.0479e-01  8.7380e-02  3.5816e-02  4.0838e-02  1.0002e+00  5.0352e-01 -8.5669e+00  0:04:39  367
   134  5.0601e+01  8.6836e-02  1.1666e-01  3.5756e-02  3.9984e-02  1.0638e+00  5.3149e-01 -1.3893e+01  0:04:39  366
   135  4.1712e+01  9.9242e-02  9.0470e-02  3.7257e-02  4.6512e-02  1.0314e+00  5.2548e-01 -2.2102e+01  0:04:38  365
   136  4.5291e+01  1.0382e-01  1.1859e-01  4.6096e-02  3.8365e-02  1.0288e+00  5.2192e-01 -2.3560e+01  0:04:37  364
   137  4.3416e+01  1.0337e-01  8.6957e-02  3.5588e-02  3.5192e-02  1.0292e+00  5.2023e-01 -3.1594e+01  0:04:30  363
   138  5.0491e+01  1.0023e-01  9.6685e-02  3.5527e-02  3.3354e-02  1.0821e+00  5.4255e-01 -5.2952e+01  0:04:30  362
   139  4.3456e+01  9.1225e-02  7.9216e-02  3.2226e-02  3.3466e-02  1.0156e+00  5.1472e-01 -7.4077e+01  0:04:30  361
   140  4.6268e+01  1.0150e-01  8.4302e-02  3.2682e-02  3.6219e-02  1.1295e+00  5.6942e-01 -7.5671e+01  0:04:24  360
   141  4.7556e+01  9.6589e-02  8.6171e-02  3.3297e-02  2.6857e-02  1.0128e+00  5.1157e-01 -8.0818e+01  0:04:25  359
   142  4.7678e+01  8.4112e-02  8.7053e-02  3.2703e-02  2.7086e-02  1.0316e+00  5.1890e-01 -6.5190e+01  0:04:31  358
   143  4.6104e+01  9.0587e-02  9.2561e-02  3.3140e-02  3.2009e-02  1.0536e+00  5.3090e-01 -5.8176e+01  0:04:22  357

  iter  continuity  x-velocity  y-velocity  z-velocity      energy           k       omega  report-def     time/iter
   144  4.8336e+01  9.4887e-02  9.8634e-02  3.4882e-02  3.3448e-02  1.0562e+00  5.3103e-01 -3.8439e+01  0:04:24  356
   145  5.0014e+01  7.7684e-02  9.3037e-02  3.1047e-02  2.8327e-02  1.0551e+00  5.3645e-01 -1.6840e+01  0:04:24  355
   146  5.3111e+01  8.8202e-02  8.5595e-02  3.0338e-02  3.5347e-02  1.0568e+00  5.3994e-01  3.4680e-01  0:04:25  354
   147  5.0754e+01  8.8188e-02  7.2926e-02  2.9810e-02  3.3431e-02  1.0426e+00  5.3487e-01  7.8428e+00  0:04:19  353
   148  5.2219e+01  9.3116e-02  8.1250e-02  3.1942e-02  2.7422e-02  1.0291e+00  5.1997e-01  7.5076e+00  0:04:39  352
   149  5.4521e+01  8.7023e-02  8.6009e-02  3.4188e-02  3.0122e-02  1.0507e+00  5.3067e-01  6.2168e+00  0:04:36  351
   150  5.7990e+01  7.3990e-02  9.3416e-02  3.2080e-02  2.7193e-02  1.0457e+00  5.3236e-01  1.4120e+01  0:04:34  350
   151  5.5440e+01  7.7639e-02  7.3745e-02  3.1331e-02  3.4574e-02  1.0430e+00  5.2704e-01  9.7249e+00  0:04:33  349
   152  5.6008e+01  8.6861e-02  9.7093e-02  3.4279e-02  3.7133e-02  1.0617e+00  5.3794e-01  2.7188e+01  0:04:32  348
   153  6.1271e+01  9.2569e-02  8.4058e-02  3.4778e-02  3.1697e-02  1.0471e+00  5.2815e-01  2.6021e+01  0:04:30  347
   154  6.3219e+01  7.8955e-02  8.1583e-02  3.0451e-02  3.3729e-02  1.0222e+00  5.1935e-01  3.9926e+01  0:04:22  346

  iter  continuity  x-velocity  y-velocity  z-velocity      energy           k       omega  report-def     time/iter
   155  6.6669e+01  9.7539e-02  8.1029e-02  3.5172e-02  5.0090e-02  1.0547e+00  5.3713e-01  2.0768e+01  0:04:22  345
   156  6.4859e+01  9.2991e-02  8.7975e-02  3.3485e-02  1.2218e-01  1.0359e+00  5.2313e-01  2.2938e+01  0:04:15  344
   157  7.1642e+01  1.2260e-01  8.9957e-02  3.6781e-02  4.3273e-02  1.0351e+00  5.2015e-01  3.4582e+00  0:04:16  343
   158  6.9315e+01  8.9462e-02  8.5397e-02  3.1539e-02  3.8684e-02  1.0345e+00  5.2304e-01 -7.8356e+00  0:04:10  342
   159  7.2188e+01  8.9636e-02  9.3673e-02  3.6546e-02  3.1431e-02  1.0363e+00  5.2346e-01 -3.2339e+01  0:04:06  341
   160  6.9771e+01  8.6376e-02  9.0924e-02  3.2849e-02  3.6834e-02  1.0553e+00  5.3476e-01 -3.5639e+01  0:04:08  340
   161  7.4031e+01  8.3165e-02  8.4972e-02  3.4491e-02  3.3660e-02  1.0514e+00  5.3810e-01 -5.7880e+01  0:04:04  339
   162  7.5061e+01  7.6872e-02  6.9825e-02  2.7948e-02  3.4721e-02  1.0300e+00  5.2250e-01 -7.2544e+01  0:04:07  338
   163  7.9251e+01  7.8809e-02  6.6073e-02  3.1753e-02  3.7686e-02  1.0625e+00  5.4272e-01 -6.5323e+01  0:04:08  337
   164  7.6438e+01  6.1052e-02  7.4297e-02  2.8021e-02  3.0699e-02  1.0337e+00  5.2521e-01 -5.0329e+01  0:04:09  336
   165  8.7249e+01  6.7440e-02  7.3978e-02  2.9370e-02  3.4542e-02  1.0437e+00  5.2941e-01 -6.6829e+01  0:04:10  335

  iter  continuity  x-velocity  y-velocity  z-velocity      energy           k       omega  report-def     time/iter
   166  8.4622e+01  5.8169e-02  5.8681e-02  2.7538e-02  3.1897e-02  1.0157e+00  5.1809e-01  8.5379e+00  0:04:04  334
   167  9.0136e+01  6.8165e-02  7.0660e-02  3.1187e-02  3.7823e-02  1.0408e+00  5.2438e-01  1.6813e+01  0:04:00  333
   168  8.9731e+01  6.5220e-02  6.5541e-02  2.8257e-02  3.4330e-02  1.0475e+00  5.2949e-01  2.4873e+01  0:04:02  332
   169  1.0293e+02  5.8336e-02  7.0805e-02  2.8429e-02  3.6335e-02  1.0309e+00  5.2176e-01  4.1641e+01  0:03:59  331
   170  1.0271e+02  5.3915e-02  6.4272e-02  2.7377e-02  3.5252e-02  1.0232e+00  5.1666e-01  9.7143e+01  0:03:55  330
   171  1.0816e+02  6.4074e-02  6.2486e-02  2.9560e-02  3.3642e-02  1.0661e+00  5.3555e-01  2.1573e+02  0:03:52  329
   172  1.0648e+02  5.6793e-02  5.7248e-02  2.6683e-02  2.7650e-02  1.0116e+00  5.1034e-01  3.1273e+02  0:03:49  328
   173  1.2173e+02  5.8536e-02  5.3355e-02  2.6816e-02  2.6563e-02  1.0356e+00  5.2099e-01  3.7724e+02  0:03:52  327
   174  1.1662e+02  4.8352e-02  4.4358e-02  2.5418e-02  2.1261e-02  1.0002e+00  5.0117e-01  6.3460e+02  0:03:49  326
   175  1.2830e+02  4.1700e-02  3.9199e-02  2.2488e-02  2.6622e-02  1.0670e+00  5.3333e-01  9.3273e+02  0:03:46  325
   176  1.2606e+02  3.7199e-02  3.8023e-02  2.1749e-02  1.8200e-02  9.9942e-01  5.0016e-01  1.1915e+03  0:03:44  324

  iter  continuity  x-velocity  y-velocity  z-velocity      energy           k       omega  report-def     time/iter
   177  1.3402e+02  2.8220e-02  2.8997e-02  1.6862e-02  1.2049e-02  9.8261e-01  4.9025e-01  1.4597e+03  0:03:42  323
   178  1.3579e+02  2.6026e-02  2.3314e-02  1.6959e-02  1.0488e-02  8.9052e-01  4.4949e-01  1.6529e+03  0:03:40  322
   179  1.4684e+02  2.3914e-02  2.0013e-02  1.6609e-02  1.0426e-02  8.1171e-01  4.2865e-01  1.8864e+03  0:03:39  321
   180  1.5984e+02  2.1529e-02  1.6816e-02  1.6768e-02  9.3475e-03  8.0110e-01  4.3497e-01  2.1316e+03  0:03:38  320
   181  1.8761e+02  1.9765e-02  1.5185e-02  1.6512e-02  9.9425e-03  7.5734e-01  4.4017e-01  2.4532e+03  0:03:36  319
   182  2.0947e+02  1.8304e-02  1.3557e-02  1.7175e-02  9.1969e-03  7.2618e-01  4.0769e-01  2.8177e+03  0:03:35  318
   183  2.4365e+02  1.7370e-02  1.2491e-02  1.6786e-02  9.6183e-03  7.1109e-01  3.8519e-01  3.2040e+03  0:03:34  317
   184  2.8403e+02  1.6725e-02  1.2126e-02  1.7331e-02  9.7409e-03  6.6212e-01  3.9169e-01  3.5711e+03  0:03:33  316
   185  3.4561e+02  1.7008e-02  1.2215e-02  1.8185e-02  1.0101e-02  6.7235e-01  3.7860e-01  3.9246e+03  0:03:33  315
   186  4.0251e+02  1.6854e-02  1.1311e-02  1.8965e-02  1.0181e-02  6.3402e-01  3.6981e-01  4.1574e+03  0:03:32  314
   187  4.9105e+02  1.6706e-02  1.1597e-02  1.9283e-02  1.1293e-02  6.5286e-01  3.7533e-01  4.2937e+03  0:03:31  313

  iter  continuity  x-velocity  y-velocity  z-velocity      energy           k       omega  report-def     time/iter
   188  5.9154e+02  1.6361e-02  1.1341e-02  2.0167e-02  1.1362e-02  6.5310e-01  3.6248e-01  4.3211e+03  0:03:30  312
   189  7.1874e+02  1.5848e-02  1.1087e-02  1.9929e-02  1.1567e-02  5.9288e-01  3.4022e-01  4.3238e+03  0:03:29  311
   190  8.7391e+02  1.5236e-02  1.0529e-02  1.9766e-02  1.1971e-02  5.8530e-01  3.2697e-01  4.5032e+03  0:03:29  310
   191  1.0299e+03  1.4326e-02  9.9442e-03  1.8793e-02  1.1970e-02  5.6399e-01  3.4591e-01  5.0990e+03  0:03:28  309
   192  1.2027e+03  1.3235e-02  9.6585e-03  1.7366e-02  1.2031e-02  6.3464e-01  3.6533e-01  6.3171e+03  0:03:28  308

 turbulent viscosity limited to viscosity ratio of 1.000000e+05 in 1 cells 
   193  1.3615e+03  1.2750e-02  9.8482e-03  1.6117e-02  1.1727e-02  6.8838e-01  3.6563e-01  8.2891e+03  0:03:27  307

 turbulent viscosity limited to viscosity ratio of 1.000000e+05 in 13 cells 
   194  1.6062e+03  1.2185e-02  9.7254e-03  1.5383e-02  1.2472e-02  5.9917e-01  3.4218e-01  1.1008e+04  0:03:26  306

 turbulent viscosity limited to viscosity ratio of 1.000000e+05 in 27 cells 
   195  1.8347e+03  1.2261e-02  9.6227e-03  1.5917e-02  1.3741e-02  6.4206e-01  3.5391e-01  1.4359e+04  0:03:26  305

 turbulent viscosity limited to viscosity ratio of 1.000000e+05 in 55 cells 
   196  2.1210e+03  1.2627e-02  9.7890e-03  1.7625e-02  1.4937e-02  6.4558e-01  3.6948e-01  1.8307e+04  0:03:25  304

 turbulent viscosity limited to viscosity ratio of 1.000000e+05 in 94 cells 
   197  2.3454e+03  1.2932e-02  1.0293e-02  1.8605e-02  1.6191e-02  6.8147e-01  4.0518e-01  2.2562e+04  0:03:24  303

 turbulent viscosity limited to viscosity ratio of 1.000000e+05 in 129 cells 
   198  2.6377e+03  1.5047e-02  1.1418e-02  2.1846e-02  1.8083e-02  7.5822e-01  4.1622e-01  2.6851e+04  0:03:24  302

 turbulent viscosity limited to viscosity ratio of 1.000000e+05 in 167 cells 

  iter  continuity  x-velocity  y-velocity  z-velocity      energy           k       omega  report-def     time/iter
   199  2.9320e+03  1.5239e-02  1.2199e-02  2.4227e-02  1.8343e-02  8.1498e-01  4.3052e-01  3.0754e+04  0:03:23  301

 turbulent viscosity limited to viscosity ratio of 1.000000e+05 in 208 cells 
   200  3.1296e+03  1.6162e-02  1.2884e-02  2.5594e-02  1.8941e-02  8.2871e-01  4.2752e-01  3.3791e+04  0:03:22  300

 turbulent viscosity limited to viscosity ratio of 1.000000e+05 in 267 cells 
   201  3.4408e+03  1.7078e-02  1.3766e-02  2.7841e-02  1.8811e-02  8.1417e-01  4.3041e-01  3.5602e+04  0:03:22  299

 turbulent viscosity limited to viscosity ratio of 1.000000e+05 in 394 cells 
   202  3.7168e+03  1.8620e-02  1.5081e-02  2.8479e-02  1.9344e-02  8.6248e-01  4.5591e-01  3.5618e+04  0:03:21  298

 turbulent viscosity limited to viscosity ratio of 1.000000e+05 in 728 cells 
   203  4.0866e+03  1.9247e-02  1.5266e-02  2.8135e-02  1.9996e-02  8.8829e-01  4.5991e-01  3.4158e+04  0:03:21  297

 turbulent viscosity limited to viscosity ratio of 1.000000e+05 in 1312 cells 
   204  4.3500e+03  1.9198e-02  1.4903e-02  2.6802e-02  1.9234e-02  8.1910e-01  3.9889e-01  3.3034e+04  0:03:21  296

 turbulent viscosity limited to viscosity ratio of 1.000000e+05 in 1947 cells 
   205  4.6270e+03  1.8772e-02  1.5764e-02  2.4599e-02  1.8451e-02  7.8461e-01  3.6180e-01  3.2113e+04  0:03:20  295

 turbulent viscosity limited to viscosity ratio of 1.000000e+05 in 2637 cells 
   206  4.9595e+03  1.9303e-02  1.5639e-02  2.3228e-02  1.9344e-02  9.4441e-01  4.2905e-01  3.2841e+04  0:03:19  294

 turbulent viscosity limited to viscosity ratio of 1.000000e+05 in 3382 cells 
   207  5.3782e+03  1.9151e-02  1.5409e-02  2.2586e-02  1.9159e-02  9.6121e-01  4.1725e-01  3.5653e+04  0:03:18  293

 turbulent viscosity limited to viscosity ratio of 1.000000e+05 in 4245 cells 
   208  5.9887e+03  1.7931e-02  1.5087e-02  2.2310e-02  1.8578e-02  9.4736e-01  4.1147e-01  4.1123e+04  0:03:17  292

 turbulent viscosity limited to viscosity ratio of 1.000000e+05 in 5211 cells 
   209  6.8607e+03  1.7765e-02  1.6042e-02  2.2905e-02  2.0334e-02  9.6705e-01  4.4071e-01  4.9231e+04  0:03:16  291

 turbulent viscosity limited to viscosity ratio of 1.000000e+05 in 6420 cells 

  iter  continuity  x-velocity  y-velocity  z-velocity      energy           k       omega  report-def     time/iter
   210  8.1087e+03  1.7716e-02  1.5889e-02  2.4096e-02  2.0888e-02  9.3344e-01  4.4694e-01  6.1775e+04  0:03:16  290

 turbulent viscosity limited to viscosity ratio of 1.000000e+05 in 8371 cells 
   211  9.7770e+03  1.8892e-02  1.6070e-02  2.4277e-02  2.1448e-02  9.4140e-01  4.4242e-01  7.7394e+04  0:03:15  289

 turbulent viscosity limited to viscosity ratio of 1.000000e+05 in 10561 cells 
   212  1.2045e+04  1.7712e-02  1.6139e-02  2.5427e-02  2.0699e-02  9.0284e-01  4.2420e-01  9.8872e+04  0:03:14  288

 turbulent viscosity limited to viscosity ratio of 1.000000e+05 in 12703 cells 
   213  1.4124e+04  1.8781e-02  1.6907e-02  2.3995e-02  2.1028e-02  9.3461e-01  4.4602e-01  1.3017e+05  0:03:13  287

 turbulent viscosity limited to viscosity ratio of 1.000000e+05 in 18517 cells 
   214  1.6559e+04  1.8204e-02  1.6639e-02  2.3099e-02  2.1407e-02  8.2849e-01  4.1805e-01  1.7700e+05  0:03:13  286

 turbulent viscosity limited to viscosity ratio of 1.000000e+05 in 25353 cells 
   215  1.9430e+04  1.6875e-02  1.5589e-02  2.2128e-02  2.1012e-02  8.5884e-01  4.4186e-01  2.4618e+05  0:03:12  285

 turbulent viscosity limited to viscosity ratio of 1.000000e+05 in 30726 cells 
   216  2.2111e+04  1.5439e-02  1.4553e-02  2.0130e-02  2.2485e-02  8.4569e-01  4.2900e-01  3.4154e+05  0:03:12  284

 turbulent viscosity limited to viscosity ratio of 1.000000e+05 in 42971 cells 
   217  2.3860e+04  1.4874e-02  1.3329e-02  1.9077e-02  2.3132e-02  8.7579e-01  4.3612e-01  4.6388e+05  0:03:11  283

 turbulent viscosity limited to viscosity ratio of 1.000000e+05 in 48393 cells 
   218  2.5310e+04  1.3913e-02  1.2830e-02  1.8359e-02  2.1829e-02  9.2853e-01  4.3345e-01  6.1013e+05  0:03:10  282

 turbulent viscosity limited to viscosity ratio of 1.000000e+05 in 51780 cells 
   219  2.8833e+04  1.3709e-02  1.2353e-02  1.7125e-02  2.1408e-02  9.8410e-01  4.7330e-01  7.8128e+05  0:03:09  281

 turbulent viscosity limited to viscosity ratio of 1.000000e+05 in 53942 cells 
   220  3.2884e+04  1.3947e-02  1.2914e-02  1.7475e-02  2.2897e-02  9.6342e-01  4.6947e-01  9.6846e+05  0:03:09  280

 turbulent viscosity limited to viscosity ratio of 1.000000e+05 in 55751 cells 

  iter  continuity  x-velocity  y-velocity  z-velocity      energy           k       omega  report-def     time/iter
   221  3.5766e+04  1.3574e-02  1.2706e-02  1.8003e-02  2.3077e-02  9.4657e-01  4.5252e-01  1.1656e+06  0:03:08  279

 turbulent viscosity limited to viscosity ratio of 1.000000e+05 in 56733 cells 
   222  4.0590e+04  1.3884e-02  1.3022e-02  1.9054e-02  2.2816e-02  9.3935e-01  4.6143e-01  1.3635e+06  0:03:07  278

 turbulent viscosity limited to viscosity ratio of 1.000000e+05 in 57596 cells 
   223  4.5723e+04  1.4870e-02  1.3741e-02  1.9331e-02  2.3786e-02  9.4312e-01  4.6783e-01  1.5532e+06  0:03:06  277

 turbulent viscosity limited to viscosity ratio of 1.000000e+05 in 58383 cells 
   224  5.1203e+04  1.5831e-02  1.4364e-02  2.0512e-02  2.5017e-02  9.8137e-01  4.9178e-01  1.7151e+06  0:03:06  276

 turbulent viscosity limited to viscosity ratio of 1.000000e+05 in 59296 cells 
   225  5.4463e+04  1.6715e-02  1.4428e-02  2.1880e-02  2.5732e-02  9.8179e-01  4.8736e-01  1.8420e+06  0:03:05  275

 turbulent viscosity limited to viscosity ratio of 1.000000e+05 in 59781 cells 
   226  5.5372e+04  1.7403e-02  1.5151e-02  2.1617e-02  2.5112e-02  9.8560e-01  4.8410e-01  1.9420e+06  0:03:04  274

 turbulent viscosity limited to viscosity ratio of 1.000000e+05 in 60095 cells 
   227  6.3882e+04  1.8018e-02  1.4833e-02  2.1488e-02  2.7684e-02  9.8392e-01  4.7872e-01  2.0037e+06  0:03:04  273

 turbulent viscosity limited to viscosity ratio of 1.000000e+05 in 60491 cells 
   228  6.8369e+04  1.7883e-02  1.5332e-02  2.3480e-02  2.5717e-02  9.8997e-01  4.8474e-01  2.0165e+06  0:03:03  272

 turbulent viscosity limited to viscosity ratio of 1.000000e+05 in 61012 cells 
   229  6.9707e+04  1.9900e-02  1.6677e-02  2.2614e-02  2.7547e-02  9.9577e-01  4.9144e-01  1.9693e+06  0:03:02  271

 turbulent viscosity limited to viscosity ratio of 1.000000e+05 in 61621 cells 
   230  7.8918e+04  2.0304e-02  1.6738e-02  2.3381e-02  2.6406e-02  9.9836e-01  4.9229e-01  1.8735e+06  0:03:02  270

 turbulent viscosity limited to viscosity ratio of 1.000000e+05 in 62412 cells 
   231  8.1670e+04  2.1499e-02  1.8296e-02  2.3381e-02  2.9196e-02  9.9999e-01  4.9847e-01  1.7367e+06  0:03:01  269

 turbulent viscosity limited to viscosity ratio of 1.000000e+05 in 62930 cells 

  iter  continuity  x-velocity  y-velocity  z-velocity      energy           k       omega  report-def     time/iter
   232  9.2505e+04  2.2536e-02  2.0926e-02  2.4984e-02  3.0192e-02  9.9773e-01  4.9560e-01  1.5629e+06  0:03:01  268

 turbulent viscosity limited to viscosity ratio of 1.000000e+05 in 63671 cells 
   233  9.6268e+04  2.3785e-02  2.2285e-02  2.3674e-02  3.1546e-02  9.9663e-01  4.9244e-01  1.3895e+06  0:03:00  267

 turbulent viscosity limited to viscosity ratio of 1.000000e+05 in 64485 cells 
   234  1.0260e+05  2.4209e-02  2.4134e-02  2.3904e-02  3.1689e-02  9.9665e-01  4.9246e-01  1.2414e+06  0:02:59  266

 turbulent viscosity limited to viscosity ratio of 1.000000e+05 in 67183 cells 
   235  1.0592e+05  2.5298e-02  2.4443e-02  2.4230e-02  3.2304e-02  9.9901e-01  4.9654e-01  1.1607e+06  0:02:59  265

 turbulent viscosity limited to viscosity ratio of 1.000000e+05 in 71510 cells 
   236  1.2868e+05  2.6128e-02  2.6005e-02  2.4228e-02  3.3121e-02  9.9775e-01  4.9503e-01  1.1410e+06  0:02:58  264

 turbulent viscosity limited to viscosity ratio of 1.000000e+05 in 75136 cells 
   237  1.3975e+05  2.4365e-02  2.7672e-02  2.2997e-02  3.3092e-02  9.9545e-01  4.9080e-01  1.1617e+06  0:02:57  263

 turbulent viscosity limited to viscosity ratio of 1.000000e+05 in 78710 cells 
   238  1.5948e+05  2.4948e-02  2.8552e-02  2.2373e-02  3.3905e-02  9.9780e-01  4.9497e-01  1.2230e+06  0:02:57  262

 turbulent viscosity limited to viscosity ratio of 1.000000e+05 in 81434 cells 
   239  1.6357e+05  2.5177e-02  3.0934e-02  2.4509e-02  3.2629e-02  9.9521e-01  4.9263e-01  1.3247e+06  0:02:56  261

 turbulent viscosity limited to viscosity ratio of 1.000000e+05 in 83915 cells 
   240  1.7706e+05  2.6267e-02  3.1156e-02  2.5280e-02  3.3253e-02  9.9426e-01  4.9208e-01  1.4439e+06  0:02:56  260

 turbulent viscosity limited to viscosity ratio of 1.000000e+05 in 86848 cells 
   241  1.9106e+05  2.7235e-02  3.0787e-02  2.6187e-02  3.3234e-02  1.0016e+00  4.9585e-01  1.6017e+06  0:02:55  259

 turbulent viscosity limited to viscosity ratio of 1.000000e+05 in 88505 cells 
   242  1.9714e+05  2.8085e-02  3.2247e-02  2.6362e-02  3.3266e-02  9.9885e-01  4.9514e-01  1.7671e+06  0:02:54  258

 turbulent viscosity limited to viscosity ratio of 1.000000e+05 in 89641 cells 

  iter  continuity  x-velocity  y-velocity  z-velocity      energy           k       omega  report-def     time/iter
   243  2.0235e+05  2.7873e-02  3.0805e-02  2.8344e-02  3.4571e-02  1.0035e+00  5.0010e-01  1.9355e+06  0:02:54  257

 turbulent viscosity limited to viscosity ratio of 1.000000e+05 in 90511 cells 
   244  2.3815e+05  2.8941e-02  3.0759e-02  2.6547e-02  3.3301e-02  9.9847e-01  4.9520e-01  2.0855e+06  0:02:53  256

 turbulent viscosity limited to viscosity ratio of 1.000000e+05 in 91159 cells 
   245  2.6690e+05  2.8108e-02  3.0202e-02  2.7008e-02  3.4606e-02  9.9772e-01  4.9382e-01  2.2137e+06  0:02:52  255

 turbulent viscosity limited to viscosity ratio of 1.000000e+05 in 91437 cells 
   246  2.9706e+05  2.7543e-02  2.9462e-02  2.8904e-02  3.3649e-02  9.9731e-01  4.9540e-01  2.3386e+06  0:02:51  254

 turbulent viscosity limited to viscosity ratio of 1.000000e+05 in 91448 cells 
   247  3.6707e+05  2.6006e-02  2.8344e-02  2.8930e-02  3.3001e-02  9.9731e-01  4.9338e-01  2.4761e+06  0:02:51  253

 turbulent viscosity limited to viscosity ratio of 1.000000e+05 in 90777 cells 
   248  4.4252e+05  2.5613e-02  2.9917e-02  2.7816e-02  3.3656e-02  9.9882e-01  4.9797e-01  2.5916e+06  0:02:50  252

 turbulent viscosity limited to viscosity ratio of 1.000000e+05 in 88840 cells 
   249  4.2742e+05  2.5068e-02  2.9072e-02  2.7709e-02  3.2106e-02  9.9851e-01  4.9851e-01  2.6517e+06  0:02:49  251

 turbulent viscosity limited to viscosity ratio of 1.000000e+05 in 86901 cells 
   250  4.7957e+05  2.4845e-02  2.9652e-02  2.6627e-02  3.1872e-02  9.8925e-01  4.9373e-01  2.7096e+06  0:02:49  250

 turbulent viscosity limited to viscosity ratio of 1.000000e+05 in 85931 cells 
   251  5.5314e+05  2.3510e-02  2.8954e-02  2.6905e-02  3.0029e-02  9.9070e-01  4.9318e-01  2.7059e+06  0:02:48  249

 turbulent viscosity limited to viscosity ratio of 1.000000e+05 in 85661 cells 
   252  5.9982e+05  2.3612e-02  2.9565e-02  2.7503e-02  3.2739e-02  9.9522e-01  4.9413e-01  2.5600e+06  0:02:49  248

 turbulent viscosity limited to viscosity ratio of 1.000000e+05 in 85940 cells 
   253  7.4142e+05  2.4950e-02  2.9142e-02  2.9277e-02  3.0916e-02  1.0000e+00  4.9797e-01  2.3225e+06  0:02:48  247

 turbulent viscosity limited to viscosity ratio of 1.000000e+05 in 86088 cells 

  iter  continuity  x-velocity  y-velocity  z-velocity      energy           k       omega  report-def     time/iter
   254  8.8743e+05  2.5115e-02  3.1896e-02  2.9691e-02  3.2325e-02  1.0009e+00  4.9993e-01  1.9974e+06  0:02:47  246

 turbulent viscosity limited to viscosity ratio of 1.000000e+05 in 86882 cells 
   255  1.0579e+06  2.5723e-02  3.3219e-02  3.1880e-02  3.2011e-02  9.9933e-01  4.9808e-01  1.6623e+06  0:02:47  245

 turbulent viscosity limited to viscosity ratio of 1.000000e+05 in 87868 cells 
   256  1.4609e+06  2.7468e-02  3.6402e-02  3.2241e-02  3.2193e-02  1.0040e+00  5.0115e-01  1.3000e+06  0:02:46  244

 turbulent viscosity limited to viscosity ratio of 1.000000e+05 in 89705 cells 
   257  1.7092e+06  2.6504e-02  4.0956e-02  3.2695e-02  3.3796e-02  1.0005e+00  4.9997e-01  9.1373e+05  0:02:45  243

 turbulent viscosity limited to viscosity ratio of 1.000000e+05 in 92349 cells 
   258  2.0394e+06  2.6324e-02  4.1672e-02  3.1129e-02  3.5389e-02  1.0002e+00  4.9849e-01  5.9817e+05  0:02:44  242

 turbulent viscosity limited to viscosity ratio of 1.000000e+05 in 98753 cells 
   259  2.1823e+06  2.5213e-02  4.1010e-02  3.1377e-02  3.5459e-02  1.0001e+00  4.9983e-01  3.4815e+05  0:02:44  241

 turbulent viscosity limited to viscosity ratio of 1.000000e+05 in 102622 cells 
   260  2.2244e+06  2.4523e-02  3.7724e-02  2.9577e-02  3.5085e-02  9.9958e-01  4.9932e-01  3.6486e+05  0:02:43  240

 turbulent viscosity limited to viscosity ratio of 1.000000e+05 in 103817 cells 
   261  2.5189e+06  2.3573e-02  3.4779e-02  2.9140e-02  3.7155e-02  1.0002e+00  4.9977e-01  7.7621e+05  0:02:42  239

 turbulent viscosity limited to viscosity ratio of 1.000000e+05 in 104235 cells 
   262  2.5055e+06  2.4153e-02  3.5249e-02  2.9521e-02  3.8402e-02  9.9881e-01  4.9879e-01  1.5930e+06  0:02:42  238

 turbulent viscosity limited to viscosity ratio of 1.000000e+05 in 104539 cells 
   263  2.7754e+06  2.7292e-02  3.7726e-02  2.9559e-02  3.9599e-02  9.9816e-01  4.9681e-01  2.5837e+06  0:02:41  237

 turbulent viscosity limited to viscosity ratio of 1.000000e+05 in 104602 cells 
   264  3.3596e+06  2.7341e-02  3.6557e-02  3.2495e-02  4.0460e-02  9.9698e-01  4.9463e-01  4.1675e+06  0:02:40  236

 turbulent viscosity limited to viscosity ratio of 1.000000e+05 in 104909 cells 

  iter  continuity  x-velocity  y-velocity  z-velocity      energy           k       omega  report-def     time/iter
   265  3.5967e+06  2.9283e-02  3.6876e-02  3.5060e-02  4.5259e-02  9.9742e-01  4.9674e-01  6.0538e+06  0:02:40  235

 turbulent viscosity limited to viscosity ratio of 1.000000e+05 in 105206 cells 
   266  4.0200e+06  3.3280e-02  4.2590e-02  3.9201e-02  4.6312e-02  9.9733e-01  5.0009e-01  8.2766e+06  0:02:39  234

 turbulent viscosity limited to viscosity ratio of 1.000000e+05 in 105504 cells 
   267  4.8007e+06  3.5672e-02  4.4431e-02  3.9893e-02  4.4194e-02  1.0014e+00  4.9952e-01  1.0832e+07  0:02:38  233

 turbulent viscosity limited to viscosity ratio of 1.000000e+05 in 105798 cells 
   268  5.2957e+06  3.5047e-02  4.4300e-02  3.9832e-02  4.5983e-02  1.0023e+00  5.0275e-01  1.3872e+07  0:02:38  232

 turbulent viscosity limited to viscosity ratio of 1.000000e+05 in 106084 cells 
   269  6.2940e+06  3.5620e-02  4.1913e-02  4.0537e-02  4.1577e-02  1.0010e+00  5.0074e-01  1.6870e+07  0:02:37  231

 turbulent viscosity limited to viscosity ratio of 1.000000e+05 in 106374 cells 
   270  6.5399e+06  3.2319e-02  3.9297e-02  3.8111e-02  4.0762e-02  1.0013e+00  5.0059e-01  1.9896e+07  0:02:37  230

 turbulent viscosity limited to viscosity ratio of 1.000000e+05 in 106652 cells 
   271  7.7399e+06  3.0966e-02  3.5000e-02  3.6070e-02  4.1105e-02  1.0002e+00  4.9989e-01  2.2419e+07  0:02:36  229

 absolute pressure limited to 5.000000e+10 in 1 cells on zone 14524 

 turbulent viscosity limited to viscosity ratio of 1.000000e+05 in 106780 cells 
   272  9.2636e+06  2.7665e-02  3.6643e-02  3.4626e-02  3.7887e-02  1.0001e+00  4.9972e-01  2.3833e+07  0:02:35  228

 absolute pressure limited to 5.000000e+10 in 4 cells on zone 14524 

 turbulent viscosity limited to viscosity ratio of 1.000000e+05 in 106880 cells 
   273  1.0278e+07  2.5172e-02  3.5998e-02  3.5596e-02  3.7130e-02  9.9947e-01  4.9941e-01  2.4080e+07  0:02:36  227

 absolute pressure limited to 5.000000e+10 in 5 cells on zone 14524 

 turbulent viscosity limited to viscosity ratio of 1.000000e+05 in 106933 cells 
   274  1.4504e+07  2.6181e-02  3.8536e-02  3.4109e-02  3.7263e-02  9.9601e-01  4.9601e-01  2.1666e+07  0:02:35  226

 absolute pressure limited to 5.000000e+10 in 19 cells on zone 14524 

 turbulent viscosity limited to viscosity ratio of 1.000000e+05 in 106946 cells 
   275  1.9268e+07  2.6547e-02  4.3636e-02  3.2257e-02  3.9944e-02  9.9884e-01  4.9783e-01  1.6032e+07  0:02:34  225

 absolute pressure limited to 5.000000e+10 in 37 cells on zone 14524 

 turbulent viscosity limited to viscosity ratio of 1.000000e+05 in 106992 cells 

  iter  continuity  x-velocity  y-velocity  z-velocity      energy           k       omega  report-def     time/iter
   276  2.2009e+07  2.6828e-02  4.5812e-02  3.5561e-02  4.2201e-02  9.9953e-01  4.9830e-01  8.0052e+06  0:02:34  224

 absolute pressure limited to 5.000000e+10 in 69 cells on zone 14524 

 turbulent viscosity limited to viscosity ratio of 1.000000e+05 in 107240 cells 
   277  2.7031e+07  2.8639e-02  4.6415e-02  3.8972e-02  4.1953e-02  1.0003e+00  4.9948e-01 -1.5835e+06  0:02:33  223

 absolute pressure limited to 5.000000e+10 in 95 cells on zone 14524 

 turbulent viscosity limited to viscosity ratio of 1.000000e+05 in 106531 cells 
   278  3.3026e+07  3.0799e-02  5.0141e-02  4.1711e-02  5.2931e-02  9.9991e-01  4.9950e-01 -1.8976e+07  0:02:36  222

 absolute pressure limited to 5.000000e+10 in 114 cells on zone 14524 

 turbulent viscosity limited to viscosity ratio of 1.000000e+05 in 106793 cells 
   279  3.4353e+07  2.8560e-02  4.7159e-02  4.2457e-02  5.6622e-02  9.9951e-01  4.9887e-01 -2.9020e+07  0:02:39  221

 absolute pressure limited to 5.000000e+10 in 211 cells on zone 14524 

 turbulent viscosity limited to viscosity ratio of 1.000000e+05 in 107894 cells 
   280  3.9917e+07  2.6972e-02  4.4457e-02  3.6498e-02  6.2196e-02  9.9997e-01  4.9964e-01 -3.9727e+07  0:02:37  220

 absolute pressure limited to 5.000000e+10 in 30161 cells on zone 14524 

 turbulent viscosity limited to viscosity ratio of 1.000000e+05 in 107737 cells 
   281  6.6593e+07  2.4283e-02  3.8854e-02  3.4096e-02  6.5049e-02  9.9978e-01  4.9961e-01 -2.6352e+07  0:02:35  219

 absolute pressure limited to 5.000000e+10 in 119730 cells on zone 14524 

 turbulent viscosity limited to viscosity ratio of 1.000000e+05 in 108151 cells 
   282  1.0673e+08  2.3350e-02  4.3661e-02  3.6713e-02  6.3731e-02  9.9829e-01  4.9856e-01  3.5429e+04  0:02:33  218

 absolute pressure limited to 5.000000e+10 in 120440 cells on zone 14524 

 turbulent viscosity limited to viscosity ratio of 1.000000e+05 in 107335 cells 
   283  1.6638e+08  2.1167e-02  4.4335e-02  4.4595e-02  6.3199e-02  9.9579e-01  4.9700e-01  4.3943e+04  0:02:32  217

 absolute pressure limited to 5.000000e+10 in 120548 cells on zone 14524 

 turbulent viscosity limited to viscosity ratio of 1.000000e+05 in 108199 cells 
   284  2.0718e+08  1.8789e-02  4.6337e-02  5.2309e-02  6.0665e-02  9.9788e-01  4.9807e-01  3.3545e+04  0:02:31  216

 absolute pressure limited to 5.000000e+10 in 120583 cells on zone 14524 

 turbulent viscosity limited to viscosity ratio of 1.000000e+05 in 107817 cells 
   285  2.3136e+08  1.7616e-02  4.8880e-02  5.5755e-02  5.8128e-02  9.9601e-01  4.9666e-01  4.0533e+04  0:02:30  215

 absolute pressure limited to 5.000000e+10 in 120581 cells on zone 14524 

 turbulent viscosity limited to viscosity ratio of 1.000000e+05 in 108662 cells 
   286  2.4740e+08  1.7537e-02  5.1716e-02  5.2313e-02  4.8043e-02  9.9823e-01  4.9830e-01  3.0568e+04  0:02:29  214

 absolute pressure limited to 5.000000e+10 in 120587 cells on zone 14524 

 turbulent viscosity limited to viscosity ratio of 1.000000e+05 in 108600 cells 

  iter  continuity  x-velocity  y-velocity  z-velocity      energy           k       omega  report-def     time/iter
   287  2.6583e+08  1.7930e-02  5.1422e-02  4.8604e-02  4.1789e-02  9.9189e-01  4.9579e-01  3.4059e+04  0:02:28  213

 absolute pressure limited to 5.000000e+10 in 120584 cells on zone 14524 

 turbulent viscosity limited to viscosity ratio of 1.000000e+05 in 108603 cells 
   288  2.6794e+08  1.8274e-02  5.0378e-02  4.4090e-02  3.6791e-02  9.9522e-01  4.9578e-01  2.8233e+04  0:02:27  212

 absolute pressure limited to 5.000000e+10 in 120581 cells on zone 14524 

 turbulent viscosity limited to viscosity ratio of 1.000000e+05 in 108616 cells 
   289  2.5939e+08  1.7970e-02  5.0716e-02  3.9739e-02  2.9989e-02  9.9798e-01  4.9756e-01  2.8724e+04  0:02:26  211

 absolute pressure limited to 5.000000e+10 in 120574 cells on zone 14524 

 turbulent viscosity limited to viscosity ratio of 1.000000e+05 in 108644 cells 
   290  2.5838e+08  1.6428e-02  4.8487e-02  3.7863e-02  2.6207e-02  9.9043e-01  4.9436e-01  2.6571e+04  0:02:25  210

 absolute pressure limited to 5.000000e+10 in 120578 cells on zone 14524 

 turbulent viscosity limited to viscosity ratio of 1.000000e+05 in 108669 cells 
   291  2.5908e+08  1.5903e-02  4.7171e-02  3.6393e-02  2.8683e-02  9.7335e-01  4.8962e-01  2.7673e+04  0:02:24  209

 absolute pressure limited to 5.000000e+10 in 120555 cells on zone 14524 

 turbulent viscosity limited to viscosity ratio of 1.000000e+05 in 108838 cells 
   292  2.5721e+08  1.7016e-02  4.8338e-02  3.7107e-02  3.1121e-02  9.7003e-01  4.8371e-01  2.2812e+04  0:02:24  208

 absolute pressure limited to 5.000000e+10 in 120555 cells on zone 14524 

 turbulent viscosity limited to viscosity ratio of 1.000000e+05 in 108877 cells 
   293  2.5214e+08  1.6832e-02  4.5755e-02  3.9482e-02  2.8045e-02  9.8198e-01  4.8014e-01  2.3285e+04  0:02:23  207

 absolute pressure limited to 5.000000e+10 in 120551 cells on zone 14524 

 turbulent viscosity limited to viscosity ratio of 1.000000e+05 in 109027 cells 
   294  2.5170e+08  1.7684e-02  4.7168e-02  4.0920e-02  2.8010e-02  9.8963e-01  4.8625e-01  1.9714e+04  0:02:22  206

 absolute pressure limited to 5.000000e+10 in 120552 cells on zone 14524 

 turbulent viscosity limited to viscosity ratio of 1.000000e+05 in 108981 cells 
   295  2.5320e+08  1.7607e-02  4.7668e-02  4.2910e-02  2.9400e-02  9.9544e-01  4.9556e-01  2.2384e+04  0:02:22  205

 absolute pressure limited to 5.000000e+10 in 120580 cells on zone 14524 

 turbulent viscosity limited to viscosity ratio of 1.000000e+05 in 109116 cells 
   296  2.7479e+08  1.8849e-02  5.0056e-02  4.3367e-02  2.6571e-02  9.8318e-01  4.9055e-01  2.0223e+04  0:02:21  204

 absolute pressure limited to 5.000000e+10 in 120566 cells on zone 14524 

 turbulent viscosity limited to viscosity ratio of 1.000000e+05 in 109099 cells 
   297  2.6849e+08  1.7370e-02  4.8249e-02  4.1329e-02  2.6158e-02  9.8811e-01  4.8865e-01  2.4145e+04  0:02:20  203

 absolute pressure limited to 5.000000e+10 in 120559 cells on zone 14524 

 turbulent viscosity limited to viscosity ratio of 1.000000e+05 in 109456 cells 

  iter  continuity  x-velocity  y-velocity  z-velocity      energy           k       omega  report-def     time/iter
   298  2.5322e+08  1.6685e-02  4.6141e-02  3.9067e-02  2.8932e-02  9.7766e-01  4.8480e-01  2.0279e+04  0:02:20  202

 absolute pressure limited to 5.000000e+10 in 120534 cells on zone 14524 

 turbulent viscosity limited to viscosity ratio of 1.000000e+05 in 110365 cells 
   299  2.4535e+08  1.7814e-02  4.3819e-02  3.9749e-02  2.9548e-02  9.8922e-01  4.8890e-01  2.2830e+04  0:02:19  201

 absolute pressure limited to 5.000000e+10 in 120575 cells on zone 14524 

 turbulent viscosity limited to viscosity ratio of 1.000000e+05 in 111378 cells 
   300  2.3789e+08  1.8456e-02  4.3234e-02  3.9851e-02  3.0425e-02  9.9048e-01  4.9148e-01  2.0807e+04  0:02:29  200

 absolute pressure limited to 5.000000e+10 in 120565 cells on zone 14524 

 turbulent viscosity limited to viscosity ratio of 1.000000e+05 in 111980 cells 
   301  2.4439e+08  1.8559e-02  4.5608e-02  4.1335e-02  3.3711e-02  9.8811e-01  4.9013e-01  2.1637e+04  0:02:26  199

 absolute pressure limited to 5.000000e+10 in 120557 cells on zone 14524 

 turbulent viscosity limited to viscosity ratio of 1.000000e+05 in 112572 cells 
   302  2.4287e+08  1.8465e-02  4.9567e-02  4.1814e-02  3.2790e-02  9.8927e-01  4.9061e-01  1.8631e+04  0:02:24  198

 absolute pressure limited to 5.000000e+10 in 120575 cells on zone 14524 

 turbulent viscosity limited to viscosity ratio of 1.000000e+05 in 112857 cells 
   303  2.5350e+08  1.9214e-02  4.9572e-02  4.1097e-02  2.8904e-02  9.8255e-01  4.8743e-01  1.9088e+04  0:02:22  197

 absolute pressure limited to 5.000000e+10 in 120548 cells on zone 14524 

 turbulent viscosity limited to viscosity ratio of 1.000000e+05 in 113982 cells 
   304  2.5121e+08  1.8256e-02  4.8426e-02  3.9260e-02  2.9491e-02  9.9770e-01  4.9800e-01  1.5687e+04  0:02:20  196

 absolute pressure limited to 5.000000e+10 in 120550 cells on zone 14524 

 turbulent viscosity limited to viscosity ratio of 1.000000e+05 in 114678 cells 
   305  2.3671e+08  1.7637e-02  4.5641e-02  3.9066e-02  2.9219e-02  9.9292e-01  4.9533e-01  1.7442e+04  0:02:18  195

 absolute pressure limited to 5.000000e+10 in 120559 cells on zone 14524 

 turbulent viscosity limited to viscosity ratio of 1.000000e+05 in 115272 cells 
   306  2.4575e+08  1.7832e-02  4.4830e-02  3.7170e-02  3.0329e-02  9.9072e-01  4.9264e-01  1.4092e+04  0:02:17  194

 absolute pressure limited to 5.000000e+10 in 120561 cells on zone 14524 

 turbulent viscosity limited to viscosity ratio of 1.000000e+05 in 115145 cells 
   307  2.4675e+08  1.7626e-02  4.5920e-02  3.6574e-02  3.1927e-02  9.9281e-01  4.9146e-01  1.7011e+04  0:02:16  193

 absolute pressure limited to 5.000000e+10 in 120551 cells on zone 14524 

 turbulent viscosity limited to viscosity ratio of 1.000000e+05 in 115249 cells 
   308  2.4346e+08  1.7854e-02  4.6376e-02  3.5616e-02  3.1676e-02  9.9465e-01  4.9371e-01  1.4465e+04  0:02:15  192

 absolute pressure limited to 5.000000e+10 in 120549 cells on zone 14524 

 turbulent viscosity limited to viscosity ratio of 1.000000e+05 in 114822 cells 

  iter  continuity  x-velocity  y-velocity  z-velocity      energy           k       omega  report-def     time/iter
   309  2.4238e+08  1.6819e-02  4.4874e-02  3.5865e-02  3.2012e-02  9.9981e-01  4.9985e-01  1.6507e+04  0:02:14  191

 absolute pressure limited to 5.000000e+10 in 120557 cells on zone 14524 

 turbulent viscosity limited to viscosity ratio of 1.000000e+05 in 115280 cells 
   310  2.4394e+08  1.7161e-02  4.6445e-02  3.5478e-02  3.0191e-02  9.9909e-01  4.9966e-01  1.3280e+04  0:02:13  190

 absolute pressure limited to 5.000000e+10 in 120550 cells on zone 14524 

 turbulent viscosity limited to viscosity ratio of 1.000000e+05 in 114896 cells 
   311  2.5170e+08  1.6997e-02  4.4815e-02  3.4630e-02  2.5294e-02  9.9673e-01  4.9932e-01  1.5271e+04  0:02:12  189

 absolute pressure limited to 5.000000e+10 in 120559 cells on zone 14524 

 turbulent viscosity limited to viscosity ratio of 1.000000e+05 in 115315 cells 
   312  2.4992e+08  1.5833e-02  4.3093e-02  3.2728e-02  2.3578e-02  9.9633e-01  4.9837e-01  1.2812e+04  0:02:11  188

 absolute pressure limited to 5.000000e+10 in 120570 cells on zone 14524 

 turbulent viscosity limited to viscosity ratio of 1.000000e+05 in 114330 cells 
   313  2.2946e+08  1.6046e-02  4.2354e-02  2.9229e-02  2.5459e-02  9.8489e-01  4.9677e-01  1.4955e+04  0:02:11  187

 absolute pressure limited to 5.000000e+10 in 120574 cells on zone 14524 

 turbulent viscosity limited to viscosity ratio of 1.000000e+05 in 115079 cells 
   314  2.2472e+08  1.5870e-02  4.0116e-02  3.1252e-02  2.7523e-02  9.9991e-01  4.9990e-01  1.2834e+04  0:02:10  186

 absolute pressure limited to 5.000000e+10 in 120529 cells on zone 14524 

 turbulent viscosity limited to viscosity ratio of 1.000000e+05 in 114037 cells 
   315  2.2336e+08  1.6186e-02  4.1830e-02  3.3223e-02  2.8521e-02  9.9953e-01  4.9977e-01  1.4677e+04  0:02:10  185

 absolute pressure limited to 5.000000e+10 in 120558 cells on zone 14524 

 turbulent viscosity limited to viscosity ratio of 1.000000e+05 in 114893 cells 
   316  2.1223e+08  1.6655e-02  4.3395e-02  3.4013e-02  2.9255e-02  9.9789e-01  4.9957e-01  1.2198e+04  0:02:09  184

 absolute pressure limited to 5.000000e+10 in 120544 cells on zone 14524 

 turbulent viscosity limited to viscosity ratio of 1.000000e+05 in 113843 cells 
   317  2.1144e+08  1.7741e-02  4.4708e-02  3.7415e-02  2.7890e-02  9.9244e-01  4.9918e-01  1.3016e+04  0:02:08  183

 absolute pressure limited to 5.000000e+10 in 120555 cells on zone 14524 

 turbulent viscosity limited to viscosity ratio of 1.000000e+05 in 114897 cells 
   318  2.1941e+08  1.7915e-02  4.7715e-02  3.9019e-02  2.6304e-02  9.8962e-01  4.9802e-01  1.1948e+04  0:02:07  182

 absolute pressure limited to 5.000000e+10 in 120569 cells on zone 14524 

 turbulent viscosity limited to viscosity ratio of 1.000000e+05 in 112363 cells 
   319  2.3252e+08  1.7751e-02  4.6305e-02  3.7940e-02  2.4755e-02  9.8259e-01  4.9522e-01  1.2947e+04  0:02:07  181

 absolute pressure limited to 5.000000e+10 in 120539 cells on zone 14524 

 turbulent viscosity limited to viscosity ratio of 1.000000e+05 in 112735 cells 

  iter  continuity  x-velocity  y-velocity  z-velocity      energy           k       omega  report-def     time/iter
   320  2.2251e+08  1.7162e-02  4.6049e-02  3.7091e-02  2.7146e-02  9.8256e-01  4.9040e-01  1.1375e+04  0:02:06  180

 absolute pressure limited to 5.000000e+10 in 120558 cells on zone 14524 

 turbulent viscosity limited to viscosity ratio of 1.000000e+05 in 111692 cells 
   321  2.2005e+08  1.6964e-02  4.5128e-02  3.6598e-02  3.1649e-02  9.9294e-01  4.9231e-01  1.1979e+04  0:02:05  179

 absolute pressure limited to 5.000000e+10 in 120548 cells on zone 14524 

 turbulent viscosity limited to viscosity ratio of 1.000000e+05 in 112579 cells 
   322  2.1782e+08  1.8802e-02  4.7443e-02  4.0047e-02  2.7893e-02  9.9865e-01  4.9835e-01  1.0696e+04  0:02:05  178

 absolute pressure limited to 5.000000e+10 in 120554 cells on zone 14524 

 turbulent viscosity limited to viscosity ratio of 1.000000e+05 in 111548 cells 
   323  2.2176e+08  1.6934e-02  4.6478e-02  4.3142e-02  2.8171e-02  9.9883e-01  4.9913e-01  1.1277e+04  0:02:04  177

 absolute pressure limited to 5.000000e+10 in 120566 cells on zone 14524 

 turbulent viscosity limited to viscosity ratio of 1.000000e+05 in 112721 cells 
   324  2.3312e+08  1.7574e-02  4.7287e-02  4.2505e-02  2.8717e-02  9.9657e-01  4.9844e-01  1.0434e+04  0:02:03  176
 temperature limited to 5.000000e+03 in 43 cells on zone 14524 in domain 1
 
 absolute pressure limited to 5.000000e+10 in 120573 cells on zone 14524 

 turbulent viscosity limited to viscosity ratio of 1.000000e+05 in 111660 cells 
   325  2.4156e+08  1.7672e-02  5.0831e-02  4.0524e-02  2.5803e-02  9.9238e-01  4.9672e-01  1.0761e+04  0:02:03  175
 temperature limited to 5.000000e+03 in 72 cells on zone 14524 in domain 1
 
 absolute pressure limited to 5.000000e+10 in 120567 cells on zone 14524 

 turbulent viscosity limited to viscosity ratio of 1.000000e+05 in 113031 cells 
   326  2.4850e+08  1.7464e-02  4.9198e-02  4.0652e-02  2.4728e-02  9.7539e-01  4.9198e-01  9.6464e+03  0:02:02  174
 temperature limited to 5.000000e+03 in 105 cells on zone 14524 in domain 1
 
 absolute pressure limited to 5.000000e+10 in 120549 cells on zone 14524 

 turbulent viscosity limited to viscosity ratio of 1.000000e+05 in 112144 cells 
   327  2.4148e+08  1.6859e-02  4.8916e-02  3.6248e-02  2.5339e-02  9.9730e-01  4.9749e-01  9.6820e+03  0:02:02  173
 temperature limited to 5.000000e+03 in 127 cells on zone 14524 in domain 1
 
 absolute pressure limited to 5.000000e+10 in 120553 cells on zone 14524 

 turbulent viscosity limited to viscosity ratio of 1.000000e+05 in 113561 cells 
   328  2.2873e+08  1.7077e-02  4.7937e-02  3.5002e-02  2.7209e-02  9.9029e-01  4.9525e-01  9.1950e+03  0:02:01  172
 temperature limited to 5.000000e+03 in 150 cells on zone 14524 in domain 1
  temperature limited to 5.000000e+03 on 7 faces

 absolute pressure limited to 5.000000e+10 in 120570 cells on zone 14524 

 turbulent viscosity limited to viscosity ratio of 1.000000e+05 in 112732 cells 
   329  2.3266e+08  1.7790e-02  4.8996e-02  3.7129e-02  2.5683e-02  9.9418e-01  4.9540e-01  9.4616e+03  0:02:00  171
 temperature limited to 5.000000e+03 in 161 cells on zone 14524 in domain 1
  temperature limited to 5.000000e+03 on 28 faces

 absolute pressure limited to 5.000000e+10 in 120568 cells on zone 14524 

 turbulent viscosity limited to viscosity ratio of 1.000000e+05 in 113622 cells 
   330  2.3724e+08  1.7428e-02  5.0317e-02  3.8663e-02  2.5584e-02  9.9950e-01  4.9940e-01  8.9749e+03  0:01:59  170
 temperature limited to 5.000000e+03 in 156 cells on zone 14524 in domain 1
  temperature limited to 5.000000e+03 on 45 faces

 absolute pressure limited to 5.000000e+10 in 120551 cells on zone 14524 

 turbulent viscosity limited to viscosity ratio of 1.000000e+05 in 113119 cells 

  iter  continuity  x-velocity  y-velocity  z-velocity      energy           k       omega  report-def     time/iter
   331  2.3067e+08  1.5652e-02  4.5716e-02  3.8723e-02  2.4886e-02  9.9762e-01  4.9870e-01  8.4695e+03  0:01:59  169
 temperature limited to 5.000000e+03 in 196 cells on zone 14524 in domain 1
  temperature limited to 5.000000e+03 on 54 faces

 absolute pressure limited to 5.000000e+10 in 120564 cells on zone 14524 

 turbulent viscosity limited to viscosity ratio of 1.000000e+05 in 114318 cells 
   332  2.3418e+08  1.6809e-02  4.6649e-02  3.6857e-02  2.4699e-02  9.9380e-01  4.9743e-01  8.2576e+03  0:01:58  168
 temperature limited to 5.000000e+03 in 4 cells on zone 14524 in domain 1
  temperature limited to 5.000000e+03 on 29 faces

 absolute pressure limited to 5.000000e+10 in 120553 cells on zone 14524 

 turbulent viscosity limited to viscosity ratio of 1.000000e+05 in 113802 cells 
   333  2.4095e+08  1.6474e-02  4.5291e-02  3.8781e-02  2.3995e-02  9.8427e-01  4.9438e-01  8.1288e+03  0:01:57  167
 temperature limited to 5.000000e+03 in 277 cells on zone 14524 in domain 1
 
 absolute pressure limited to 5.000000e+10 in 120567 cells on zone 14524 

 turbulent viscosity limited to viscosity ratio of 1.000000e+05 in 114828 cells 
   334  2.3641e+08  1.5942e-02  4.4588e-02  3.8881e-02  2.3975e-02  9.7029e-01  4.8924e-01  7.5676e+03  0:01:56  166
 temperature limited to 5.000000e+03 in 952 cells on zone 14524 in domain 1
 
 absolute pressure limited to 5.000000e+10 in 120570 cells on zone 14524 

 turbulent viscosity limited to viscosity ratio of 1.000000e+05 in 113958 cells 
   335  2.4320e+08  1.6117e-02  4.4870e-02  3.8666e-02  2.3624e-02  9.7708e-01  4.8693e-01  7.2828e+03  0:01:56  165
 temperature limited to 5.000000e+03 in 379 cells on zone 14524 in domain 1
 
 absolute pressure limited to 5.000000e+10 in 120553 cells on zone 14524 

 turbulent viscosity limited to viscosity ratio of 1.000000e+05 in 114427 cells 
   336  2.3783e+08  1.6019e-02  4.4571e-02  3.9821e-02  2.3134e-02  9.9412e-01  4.9427e-01  7.6881e+03  0:01:55  164
        Stabilizing temperature to enhance linear solver robustness.
 temperature limited to 5.000000e+03 in 1222 cells on zone 14524 in domain 1
 
 absolute pressure limited to 5.000000e+10 in 120571 cells on zone 14524 

 turbulent viscosity limited to viscosity ratio of 1.000000e+05 in 113435 cells 
   337  2.4204e+08  1.5778e-02  4.5336e-02  4.0730e-02  2.4471e-02  9.9091e-01  4.9222e-01  6.7280e+03  0:01:59  163
 temperature limited to 5.000000e+03 in 1033 cells on zone 14524 in domain 1
 
 absolute pressure limited to 5.000000e+10 in 120579 cells on zone 14524 

 turbulent viscosity limited to viscosity ratio of 1.000000e+05 in 114035 cells 
   338  2.4946e+08  1.6669e-02  4.6012e-02  4.0661e-02  2.3405e-02  9.9263e-01  4.9294e-01  7.5776e+03  0:01:57  162
 temperature limited to 5.000000e+03 in 5997 cells on zone 14524 in domain 1
 
 absolute pressure limited to 5.000000e+10 in 120562 cells on zone 14524 

 turbulent viscosity limited to viscosity ratio of 1.000000e+05 in 113542 cells 
   339  2.4348e+08  1.5925e-02  4.5856e-02  3.9372e-02  2.1800e-02  9.9997e-01  4.9996e-01  7.0959e+03  0:01:56  161
 temperature limited to 5.000000e+03 in 16310 cells on zone 14524 in domain 1
  temperature limited to 5.000000e+03 on 22 faces

 absolute pressure limited to 5.000000e+10 in 120553 cells on zone 14524 

 turbulent viscosity limited to viscosity ratio of 1.000000e+05 in 114335 cells 
   340  2.3819e+08  1.5504e-02  4.4673e-02  3.8411e-02  2.2763e-02  9.9984e-01  4.9991e-01  6.7374e+03  0:01:57  160
 temperature limited to 5.000000e+03 in 14480 cells on zone 14524 in domain 1
  temperature limited to 5.000000e+03 on 85 faces

 absolute pressure limited to 5.000000e+10 in 120566 cells on zone 14524 

 turbulent viscosity limited to viscosity ratio of 1.000000e+05 in 113728 cells 
   341  2.3747e+08  1.6121e-02  4.4603e-02  3.8745e-02  2.2816e-02  9.9899e-01  4.9974e-01  5.7462e+03  0:01:55  159
 temperature limited to 5.000000e+03 in 2548 cells on zone 14524 in domain 1
  temperature limited to 5.000000e+03 on 181 faces

 absolute pressure limited to 5.000000e+10 in 120553 cells on zone 14524 

 turbulent viscosity limited to viscosity ratio of 1.000000e+05 in 114603 cells 

  iter  continuity  x-velocity  y-velocity  z-velocity      energy           k       omega  report-def     time/iter
   342  2.4467e+08  1.6326e-02  4.4906e-02  4.0185e-02  2.2822e-02  9.9444e-01  4.9935e-01  6.3292e+03  0:01:53  158
 temperature limited to 5.000000e+03 in 9847 cells on zone 14524 in domain 1
  temperature limited to 5.000000e+03 on 363 faces

 absolute pressure limited to 5.000000e+10 in 120563 cells on zone 14524 

 turbulent viscosity limited to viscosity ratio of 1.000000e+05 in 114344 cells 
   343  2.4675e+08  1.5771e-02  4.4794e-02  3.9096e-02  2.3990e-02  9.9302e-01  4.9850e-01  5.5641e+03  0:01:52  157
 temperature limited to 5.000000e+03 in 961 cells on zone 14524 in domain 1
  temperature limited to 5.000000e+03 on 258 faces

 absolute pressure limited to 5.000000e+10 in 120560 cells on zone 14524 

 turbulent viscosity limited to viscosity ratio of 1.000000e+05 in 114870 cells 
   344  2.4532e+08  1.6650e-02  4.5641e-02  3.9401e-02  2.3659e-02  9.7556e-01  4.9679e-01  6.7440e+03  0:01:51  156
 temperature limited to 5.000000e+03 in 1369 cells on zone 14524 in domain 1
  temperature limited to 5.000000e+03 on 94 faces

 absolute pressure limited to 5.000000e+10 in 120578 cells on zone 14524 

 turbulent viscosity limited to viscosity ratio of 1.000000e+05 in 114322 cells 
   345  2.4550e+08  1.6093e-02  4.6000e-02  3.9870e-02  2.4127e-02  9.8951e-01  4.9617e-01  5.8749e+03  0:01:50  155
 temperature limited to 5.000000e+03 in 1328 cells on zone 14524 in domain 1
  temperature limited to 5.000000e+03 on 106 faces

 absolute pressure limited to 5.000000e+10 in 120566 cells on zone 14524 

 turbulent viscosity limited to viscosity ratio of 1.000000e+05 in 114782 cells 
   346  2.4492e+08  1.7625e-02  4.8616e-02  4.1657e-02  2.2577e-02  9.6615e-01  4.9160e-01  6.6261e+03  0:01:48  154
 temperature limited to 5.000000e+03 in 307 cells on zone 14524 in domain 1
  temperature limited to 5.000000e+03 on 56 faces

 absolute pressure limited to 5.000000e+10 in 120563 cells on zone 14524 

 turbulent viscosity limited to viscosity ratio of 1.000000e+05 in 114280 cells 
   347  2.5124e+08  1.6992e-02  4.7388e-02  4.1951e-02  2.2835e-02  9.9789e-01  4.9762e-01  5.7246e+03  0:01:48  153
 temperature limited to 5.000000e+03 in 837 cells on zone 14524 in domain 1
  temperature limited to 5.000000e+03 on 3 faces

 absolute pressure limited to 5.000000e+10 in 120555 cells on zone 14524 

 turbulent viscosity limited to viscosity ratio of 1.000000e+05 in 114708 cells 
   348  2.5168e+08  1.7684e-02  4.8363e-02  3.9809e-02  2.3589e-02  9.9994e-01  4.9993e-01  5.7764e+03  0:01:47  152
 temperature limited to 5.000000e+03 in 148 cells on zone 14524 in domain 1
  temperature limited to 5.000000e+03 on 3 faces

 absolute pressure limited to 5.000000e+10 in 120551 cells on zone 14524 

 turbulent viscosity limited to viscosity ratio of 1.000000e+05 in 113728 cells 
   349  2.4327e+08  1.7120e-02  4.9675e-02  4.2249e-02  2.5740e-02  9.9969e-01  4.9984e-01  4.8757e+03  0:01:46  151
 temperature limited to 5.000000e+03 in 226 cells on zone 14524 in domain 1
  temperature limited to 5.000000e+03 on 5 faces

 absolute pressure limited to 5.000000e+10 in 120564 cells on zone 14524 

 turbulent viscosity limited to viscosity ratio of 1.000000e+05 in 113739 cells 
   350  2.5295e+08  1.7432e-02  5.0089e-02  4.4315e-02  2.5216e-02  9.9842e-01  4.9957e-01  5.1542e+03  0:01:45  150
 temperature limited to 1.000000e+00 in 1 cells on zone 14524 in domain 1
  temperature limited to 5.000000e+03 in 121 cells on zone 14524 in domain 1
  temperature limited to 5.000000e+03 on 4 faces

 absolute pressure limited to 5.000000e+10 in 120568 cells on zone 14524 

 turbulent viscosity limited to viscosity ratio of 1.000000e+05 in 113275 cells 
   351  2.6534e+08  1.6930e-02  4.7054e-02  4.3337e-02  2.6207e-02  9.9833e-01  4.9921e-01  3.9812e+03  0:01:44  149
 temperature limited to 1.000000e+00 in 38 cells on zone 14524 in domain 1
  temperature limited to 5.000000e+03 in 147 cells on zone 14524 in domain 1
 
 absolute pressure limited to 5.000000e+10 in 120560 cells on zone 14524 

 turbulent viscosity limited to viscosity ratio of 1.000000e+05 in 113609 cells 
   352  2.6965e+08  1.6423e-02  4.8473e-02  4.1990e-02  2.7909e-02  9.9934e-01  4.9943e-01  5.0782e+03  0:01:43  148
 temperature limited to 1.000000e+00 in 201 cells on zone 14524 in domain 1
[...]

 turbulent viscosity limited to viscosity ratio of 1.000000e+05 in 112994 cells 

  iter  continuity  x-velocity  y-velocity  z-velocity      energy           k       omega  report-def     time/iter
   452  3.2483e+09  1.4805e-02  4.8885e-02  3.1302e-02  3.9483e-02  9.8567e-01  4.9419e-01 -3.5271e+03  0:00:34   48
 temperature limited to 1.000000e+00 in 14 cells on zone 14524 in domain 1
  temperature limited to 5.000000e+03 in 287 cells on zone 14524 in domain 1
  temperature limited to 5.000000e+03 on 10 faces

 absolute pressure limited to 5.000000e+10 in 120374 cells on zone 14524 

 turbulent viscosity limited to viscosity ratio of 1.000000e+05 in 113225 cells 
   453  3.1489e+09  1.4468e-02  4.8038e-02  3.1235e-02  3.7151e-02  9.6861e-01  4.8721e-01 -5.2032e+03  0:00:33   47
 temperature limited to 1.000000e+00 in 18 cells on zone 14524 in domain 1
  temperature limited to 5.000000e+03 in 214 cells on zone 14524 in domain 1
  temperature limited to 5.000000e+03 on 15 faces

 absolute pressure limited to 5.000000e+10 in 120402 cells on zone 14524 

 turbulent viscosity limited to viscosity ratio of 1.000000e+05 in 112923 cells 
   454  3.2435e+09  1.4496e-02  4.7572e-02  2.9891e-02  3.8403e-02  9.6854e-01  4.8017e-01 -3.4401e+03  0:00:33   46
 temperature limited to 1.000000e+00 in 21 cells on zone 14524 in domain 1
  temperature limited to 5.000000e+03 in 377 cells on zone 14524 in domain 1
  temperature limited to 5.000000e+03 on 19 faces

 absolute pressure limited to 5.000000e+10 in 120404 cells on zone 14524 

 turbulent viscosity limited to viscosity ratio of 1.000000e+05 in 112934 cells 
   455  3.5710e+09  1.3656e-02  4.5128e-02  2.9544e-02  3.6838e-02  9.7318e-01  4.7517e-01 -6.3922e+03  0:00:32   45
 temperature limited to 1.000000e+00 in 23 cells on zone 14524 in domain 1
  temperature limited to 5.000000e+03 in 329 cells on zone 14524 in domain 1
  temperature limited to 5.000000e+03 on 24 faces

 absolute pressure limited to 5.000000e+10 in 120420 cells on zone 14524 

 turbulent viscosity limited to viscosity ratio of 1.000000e+05 in 112355 cells 
   456  3.6058e+09  1.3958e-02  4.6498e-02  2.9147e-02  3.6872e-02  9.8041e-01  4.8025e-01 -4.0131e+03  0:00:31   44
 temperature limited to 1.000000e+00 in 28 cells on zone 14524 in domain 1
  temperature limited to 5.000000e+03 in 454 cells on zone 14524 in domain 1
  temperature limited to 5.000000e+03 on 32 faces

 absolute pressure limited to 5.000000e+10 in 120394 cells on zone 14524 

 turbulent viscosity limited to viscosity ratio of 1.000000e+05 in 112328 cells 
   457  3.4697e+09  1.4650e-02  4.9144e-02  2.8179e-02  3.5635e-02  9.9796e-01  4.9749e-01 -6.7289e+03  0:00:30   43
 temperature limited to 1.000000e+00 in 27 cells on zone 14524 in domain 1
  temperature limited to 5.000000e+03 in 451 cells on zone 14524 in domain 1
  temperature limited to 5.000000e+03 on 44 faces

 absolute pressure limited to 5.000000e+10 in 120402 cells on zone 14524 

 turbulent viscosity limited to viscosity ratio of 1.000000e+05 in 112178 cells 
   458  3.4863e+09  1.4230e-02  4.7403e-02  2.8658e-02  3.6365e-02  9.9273e-01  4.9488e-01 -4.7051e+03  0:00:29   42
 temperature limited to 1.000000e+00 in 4 cells on zone 14524 in domain 1
  temperature limited to 5.000000e+03 in 415 cells on zone 14524 in domain 1
  temperature limited to 5.000000e+03 on 48 faces

 absolute pressure limited to 5.000000e+10 in 120422 cells on zone 14524 

 turbulent viscosity limited to viscosity ratio of 1.000000e+05 in 112463 cells 
   459  3.5378e+09  1.4204e-02  4.7514e-02  2.7538e-02  3.4667e-02  9.8797e-01  4.9130e-01 -7.3062e+03  0:00:29   41
 temperature limited to 1.000000e+00 in 3 cells on zone 14524 in domain 1
  temperature limited to 5.000000e+03 in 584 cells on zone 14524 in domain 1
  temperature limited to 5.000000e+03 on 46 faces

 absolute pressure limited to 5.000000e+10 in 120369 cells on zone 14524 

 turbulent viscosity limited to viscosity ratio of 1.000000e+05 in 112476 cells 
   460  3.5496e+09  1.3770e-02  4.6221e-02  2.8689e-02  3.7500e-02  9.8150e-01  4.8689e-01 -4.9656e+03  0:00:28   40
 temperature limited to 1.000000e+00 in 19 cells on zone 14524 in domain 1
  temperature limited to 5.000000e+03 in 546 cells on zone 14524 in domain 1
  temperature limited to 5.000000e+03 on 50 faces

 absolute pressure limited to 5.000000e+10 in 120391 cells on zone 14524 

 turbulent viscosity limited to viscosity ratio of 1.000000e+05 in 112529 cells 
   461  3.6268e+09  1.3423e-02  4.4396e-02  2.9049e-02  3.5896e-02  9.8402e-01  4.8751e-01 -8.7260e+03  0:00:27   39
 temperature limited to 1.000000e+00 in 7 cells on zone 14524 in domain 1
  temperature limited to 5.000000e+03 in 763 cells on zone 14524 in domain 1
  temperature limited to 5.000000e+03 on 54 faces

 absolute pressure limited to 5.000000e+10 in 120393 cells on zone 14524 

 turbulent viscosity limited to viscosity ratio of 1.000000e+05 in 112321 cells 
   462  3.7071e+09  1.4236e-02  4.7541e-02  3.0741e-02  3.6549e-02  9.7162e-01  4.8180e-01 -5.8134e+03  0:00:27   38
 temperature limited to 1.000000e+00 in 10 cells on zone 14524 in domain 1
  temperature limited to 5.000000e+03 in 930 cells on zone 14524 in domain 1
  temperature limited to 5.000000e+03 on 62 faces

 absolute pressure limited to 5.000000e+10 in 120390 cells on zone 14524 

 turbulent viscosity limited to viscosity ratio of 1.000000e+05 in 112357 cells 

  iter  continuity  x-velocity  y-velocity  z-velocity      energy           k       omega  report-def     time/iter
   463  4.0210e+09  1.4234e-02  4.7655e-02  3.2152e-02  3.3600e-02  9.9463e-01  4.9086e-01 -1.0976e+04  0:00:26   37
 temperature limited to 1.000000e+00 in 16 cells on zone 14524 in domain 1
  temperature limited to 5.000000e+03 in 1175 cells on zone 14524 in domain 1
  temperature limited to 5.000000e+03 on 77 faces

 absolute pressure limited to 5.000000e+10 in 120374 cells on zone 14524 

 turbulent viscosity limited to viscosity ratio of 1.000000e+05 in 111877 cells 
   464  4.4043e+09  1.3764e-02  4.5526e-02  3.2960e-02  3.5499e-02  9.9956e-01  4.9954e-01 -9.9221e+03  0:00:25   36
 temperature limited to 1.000000e+00 in 27 cells on zone 14524 in domain 1
  temperature limited to 5.000000e+03 in 1304 cells on zone 14524 in domain 1
  temperature limited to 5.000000e+03 on 104 faces

 absolute pressure limited to 5.000000e+10 in 120388 cells on zone 14524 

 turbulent viscosity limited to viscosity ratio of 1.000000e+05 in 112060 cells 
   465  4.3241e+09  1.4266e-02  4.8002e-02  3.3254e-02  3.5423e-02  9.9975e-01  4.9980e-01 -1.5775e+04  0:00:24   35
 temperature limited to 1.000000e+00 in 30 cells on zone 14524 in domain 1
  temperature limited to 5.000000e+03 in 1460 cells on zone 14524 in domain 1
  temperature limited to 5.000000e+03 on 133 faces

 absolute pressure limited to 5.000000e+10 in 120436 cells on zone 14524 

 turbulent viscosity limited to viscosity ratio of 1.000000e+05 in 111608 cells 
   466  4.5223e+09  1.3830e-02  4.6749e-02  3.2395e-02  3.3330e-02  9.9956e-01  4.9968e-01 -1.3587e+04  0:00:24   34
 temperature limited to 1.000000e+00 in 34 cells on zone 14524 in domain 1
  temperature limited to 5.000000e+03 in 1554 cells on zone 14524 in domain 1
  temperature limited to 5.000000e+03 on 175 faces

 absolute pressure limited to 5.000000e+10 in 120372 cells on zone 14524 

 turbulent viscosity limited to viscosity ratio of 1.000000e+05 in 112045 cells 
   467  4.8564e+09  1.3782e-02  4.6762e-02  3.0451e-02  3.2291e-02  9.9786e-01  4.9924e-01 -1.9707e+04  0:00:23   33
 temperature limited to 1.000000e+00 in 41 cells on zone 14524 in domain 1
  temperature limited to 5.000000e+03 in 1725 cells on zone 14524 in domain 1
  temperature limited to 5.000000e+03 on 217 faces

 absolute pressure limited to 5.000000e+10 in 120399 cells on zone 14524 

 turbulent viscosity limited to viscosity ratio of 1.000000e+05 in 111541 cells 
   468  4.6273e+09  1.3896e-02  4.7321e-02  2.9974e-02  3.5240e-02  9.9438e-01  4.9828e-01 -1.7777e+04  0:00:22   32
 temperature limited to 1.000000e+00 in 61 cells on zone 14524 in domain 1
  temperature limited to 5.000000e+03 in 1136 cells on zone 14524 in domain 1
  temperature limited to 5.000000e+03 on 222 faces

 absolute pressure limited to 5.000000e+10 in 120416 cells on zone 14524 

 turbulent viscosity limited to viscosity ratio of 1.000000e+05 in 112028 cells 
   469  5.0471e+09  1.3671e-02  4.6220e-02  2.8152e-02  3.5941e-02  9.8757e-01  4.9629e-01 -2.2894e+04  0:00:22   31
 temperature limited to 1.000000e+00 in 69 cells on zone 14524 in domain 1
  temperature limited to 5.000000e+03 in 1105 cells on zone 14524 in domain 1
  temperature limited to 5.000000e+03 on 195 faces

 absolute pressure limited to 5.000000e+10 in 120380 cells on zone 14524 

 turbulent viscosity limited to viscosity ratio of 1.000000e+05 in 111373 cells 
   470  5.5888e+09  1.3469e-02  4.6303e-02  2.8957e-02  3.3965e-02  9.8447e-01  4.9249e-01 -2.2058e+04  0:00:21   30
 temperature limited to 1.000000e+00 in 94 cells on zone 14524 in domain 1
  temperature limited to 5.000000e+03 in 1210 cells on zone 14524 in domain 1
  temperature limited to 5.000000e+03 on 236 faces

 absolute pressure limited to 5.000000e+10 in 120394 cells on zone 14524 

 turbulent viscosity limited to viscosity ratio of 1.000000e+05 in 111715 cells 
   471  5.2583e+09  1.3460e-02  4.6455e-02  2.9019e-02  3.4526e-02  9.8805e-01  4.8945e-01 -2.7597e+04  0:00:20   29
 temperature limited to 1.000000e+00 in 123 cells on zone 14524 in domain 1
  temperature limited to 5.000000e+03 in 1459 cells on zone 14524 in domain 1
  temperature limited to 5.000000e+03 on 280 faces

 absolute pressure limited to 5.000000e+10 in 120403 cells on zone 14524 

 turbulent viscosity limited to viscosity ratio of 1.000000e+05 in 110970 cells 
   472  5.5082e+09  1.3517e-02  4.6780e-02  2.7299e-02  9.4077e-01  9.9667e-01  4.9348e-01 -2.8567e+04  0:00:19   28
 temperature limited to 1.000000e+00 in 56 cells on zone 14524 in domain 1
  temperature limited to 5.000000e+03 in 1959 cells on zone 14524 in domain 1
  temperature limited to 5.000000e+03 on 300 faces

 absolute pressure limited to 5.000000e+10 in 120373 cells on zone 14524 

 turbulent viscosity limited to viscosity ratio of 1.000000e+05 in 111061 cells 
   473  6.0388e+09  1.4569e-02  4.9468e-02  2.7281e-02  1.4017e-01  9.9963e-01  4.9942e-01 -3.1036e+04  0:00:19   27
 temperature limited to 1.000000e+00 in 96 cells on zone 14524 in domain 1
  temperature limited to 5.000000e+03 in 79 cells on zone 14524 in domain 1
  temperature limited to 5.000000e+03 on 152 faces

 absolute pressure limited to 5.000000e+10 in 120016 cells on zone 14524 

 turbulent viscosity limited to viscosity ratio of 1.000000e+05 in 110712 cells 

  iter  continuity  x-velocity  y-velocity  z-velocity      energy           k       omega  report-def     time/iter
   474  5.8395e+09  1.4677e-02  5.0115e-02  3.0838e-02  8.1265e-02  9.9799e-01  4.9850e-01 -2.4769e+04  0:00:18   26
 temperature limited to 1.000000e+00 in 66 cells on zone 14524 in domain 1
  temperature limited to 5.000000e+03 in 165 cells on zone 14524 in domain 1
 
 absolute pressure limited to 5.000000e+10 in 91795 cells on zone 14524 

 turbulent viscosity limited to viscosity ratio of 1.000000e+05 in 111311 cells 
   475  6.1597e+09  1.4293e-02  4.6561e-02  2.8250e-02  5.8477e-02  9.9263e-01  4.9688e-01 -1.3011e+07  0:00:18   25
 temperature limited to 1.000000e+00 in 60 cells on zone 14524 in domain 1
  temperature limited to 5.000000e+03 in 225 cells on zone 14524 in domain 1
  temperature limited to 5.000000e+03 on 1 faces

 absolute pressure limited to 5.000000e+10 in 63162 cells on zone 14524 

 turbulent viscosity limited to viscosity ratio of 1.000000e+05 in 109778 cells 
   476  6.7384e+09  1.3254e-02  4.5120e-02  3.0790e-02  3.8799e-02  9.9556e-01  4.9580e-01 -2.3838e+07  0:00:17   24
 temperature limited to 1.000000e+00 in 12 cells on zone 14524 in domain 1
  temperature limited to 5.000000e+03 in 432 cells on zone 14524 in domain 1
  temperature limited to 5.000000e+03 on 5 faces

 absolute pressure limited to 5.000000e+10 in 75595 cells on zone 14524 

 turbulent viscosity limited to viscosity ratio of 1.000000e+05 in 108594 cells 
   477  6.0983e+09  1.2569e-02  4.4062e-02  3.0750e-02  3.4427e-02  9.9765e-01  4.9712e-01 -3.4932e+07  0:00:16   23
 temperature limited to 1.000000e+00 in 2 cells on zone 14524 in domain 1
  temperature limited to 5.000000e+03 in 248 cells on zone 14524 in domain 1
  temperature limited to 5.000000e+03 on 15 faces

 absolute pressure limited to 5.000000e+10 in 11744 cells on zone 14524 

 turbulent viscosity limited to viscosity ratio of 1.000000e+05 in 108515 cells 
   478  5.5394e+09  1.2058e-02  4.2171e-02  2.9762e-02  2.9530e-02  9.9050e-01  4.9424e-01 -4.0464e+07  0:00:15   22
 temperature limited to 1.000000e+00 in 4 cells on zone 14524 in domain 1
  temperature limited to 5.000000e+03 in 400 cells on zone 14524 in domain 1
  temperature limited to 5.000000e+03 on 79 faces

 absolute pressure limited to 5.000000e+10 in 78452 cells on zone 14524 

 turbulent viscosity limited to viscosity ratio of 1.000000e+05 in 107834 cells 
   479  2.8198e+09  1.1471e-02  4.0340e-02  3.4998e-02  3.7940e-02  9.9412e-01  4.9418e-01 -7.2430e+07  0:00:15   21
 temperature limited to 1.000000e+00 in 2 cells on zone 14524 in domain 1
  temperature limited to 5.000000e+03 in 97 cells on zone 14524 in domain 1
  temperature limited to 5.000000e+03 on 42 faces

 absolute pressure limited to 5.000000e+10 in 12458 cells on zone 14524 

 turbulent viscosity limited to viscosity ratio of 1.000000e+05 in 108148 cells 
   480  3.0139e+09  1.0664e-02  3.5104e-02  1.4711e-02  3.7314e-02  9.9117e-01  4.9520e-01 -7.0230e+07  0:00:14   20
 temperature limited to 5.000000e+03 in 183 cells on zone 14524 in domain 1
  temperature limited to 5.000000e+03 on 8 faces

 absolute pressure limited to 5.000000e+10 in 12194 cells on zone 14524 

 turbulent viscosity limited to viscosity ratio of 1.000000e+05 in 108053 cells 
   481  1.1386e+09  1.0061e-02  3.4103e-02  4.6804e-02  5.1162e-02  9.8183e-01  4.9340e-01 -8.6203e+07  0:00:13   19
 temperature limited to 5.000000e+03 in 125 cells on zone 14524 in domain 1
  temperature limited to 5.000000e+03 on 4 faces

 absolute pressure limited to 5.000000e+10 in 13796 cells on zone 14524 

 turbulent viscosity limited to viscosity ratio of 1.000000e+05 in 107147 cells 
   482  2.2315e+08  9.5538e-03  2.8605e-02  3.7963e-02  8.7829e-02  9.9340e-01  4.9667e-01 -1.0041e+08  0:00:12   18

 absolute pressure limited to 5.000000e+10 in 14771 cells on zone 14524 

 turbulent viscosity limited to viscosity ratio of 1.000000e+05 in 105856 cells 
   483  4.4056e+07  1.3244e-02  2.6565e-02  1.4539e-02  1.1813e-01  9.9088e-01  4.9670e-01 -1.0930e+08  0:00:12   17

 absolute pressure limited to 5.000000e+10 in 16435 cells on zone 14524 

 turbulent viscosity limited to viscosity ratio of 1.000000e+05 in 104257 cells 
   484  1.9413e+07  1.8249e-02  2.5770e-02  1.3461e-02  1.2876e-01  9.8937e-01  4.9956e-01 -1.2598e+08  0:00:11   16

 absolute pressure limited to 5.000000e+10 in 54160 cells on zone 14524 

 turbulent viscosity limited to viscosity ratio of 1.000000e+05 in 104870 cells 

  iter  continuity  x-velocity  y-velocity  z-velocity      energy           k       omega  report-def     time/iter
   485  1.6093e+07  2.4554e-02  3.2351e-02  1.3274e-02  1.2447e-01  9.2376e-01  4.9882e-01 -1.4513e+08  0:00:10   15

 absolute pressure limited to 5.000000e+10 in 56876 cells on zone 14524 

 turbulent viscosity limited to viscosity ratio of 1.000000e+05 in 105347 cells 
   486  1.4195e+07  2.4035e-02  3.0891e-02  1.1517e-02  1.1811e-01  9.3927e-01  4.9864e-01 -1.6303e+08  0:00:10   14

 absolute pressure limited to 5.000000e+10 in 63372 cells on zone 14524 

 turbulent viscosity limited to viscosity ratio of 1.000000e+05 in 105181 cells 
   487  1.3322e+07  2.5062e-02  3.1628e-02  1.2317e-02  1.2112e-01  1.0374e+00  4.9914e-01 -1.7526e+08  0:00:09   13

 absolute pressure limited to 5.000000e+10 in 75416 cells on zone 14524 

 turbulent viscosity limited to viscosity ratio of 1.000000e+05 in 104736 cells 
   488  1.2957e+07  2.7297e-02  3.4631e-02  1.4166e-02  1.2057e-01  1.0619e+00  5.0017e-01 -1.7826e+08  0:00:08   12

 absolute pressure limited to 5.000000e+10 in 78147 cells on zone 14524 

 turbulent viscosity limited to viscosity ratio of 1.000000e+05 in 103098 cells 
   489  1.4726e+07  2.8712e-02  3.6427e-02  1.5847e-02  1.2514e-01  9.8324e-01  4.9010e-01 -1.8527e+08  0:00:07   11

 absolute pressure limited to 5.000000e+10 in 78061 cells on zone 14524 

 turbulent viscosity limited to viscosity ratio of 1.000000e+05 in 101971 cells 
   490  2.0915e+07  3.0946e-02  4.1166e-02  2.0221e-02  1.2062e-01  9.9924e-01  5.0044e-01 -1.9318e+08  0:00:07   10

 absolute pressure limited to 5.000000e+10 in 78903 cells on zone 14524 

 turbulent viscosity limited to viscosity ratio of 1.000000e+05 in 101360 cells 
   491  3.1678e+07  2.9737e-02  4.3880e-02  2.8800e-02  1.0521e-01  1.0005e+00  5.0135e-01 -1.9876e+08  0:00:06    9

 absolute pressure limited to 5.000000e+10 in 81337 cells on zone 14524 

 turbulent viscosity limited to viscosity ratio of 1.000000e+05 in 101171 cells 
   492  5.1942e+07  2.8094e-02  4.2752e-02  3.9492e-02  1.0460e-01  1.0030e+00  5.0234e-01 -1.9857e+08  0:00:05    8

 absolute pressure limited to 5.000000e+10 in 83566 cells on zone 14524 

 turbulent viscosity limited to viscosity ratio of 1.000000e+05 in 101747 cells 
   493  2.0591e+08  2.7545e-02  4.9948e-02  4.4325e-02  7.7540e-02  1.0011e+00  5.0083e-01 -1.9534e+08  0:00:05    7

 absolute pressure limited to 5.000000e+10 in 87974 cells on zone 14524 

 turbulent viscosity limited to viscosity ratio of 1.000000e+05 in 105007 cells 
   494  8.8386e+08  1.6205e-02  4.0311e-02  6.5623e-02  4.1528e-02  1.0004e+00  5.0030e-01 -1.8963e+08  0:00:04    6

 absolute pressure limited to 5.000000e+10 in 92098 cells on zone 14524 

 turbulent viscosity limited to viscosity ratio of 1.000000e+05 in 106571 cells 
   495  2.0751e+09  1.2482e-02  3.8770e-02  7.7193e-02  2.5189e-02  1.0002e+00  5.0014e-01 -1.8009e+08  0:00:03    5

 absolute pressure limited to 5.000000e+10 in 98377 cells on zone 14524 

 turbulent viscosity limited to viscosity ratio of 1.000000e+05 in 107110 cells 

  iter  continuity  x-velocity  y-velocity  z-velocity      energy           k       omega  report-def     time/iter
   496  3.1356e+09  1.1281e-02  3.7474e-02  7.0940e-02  1.6964e-02  1.0001e+00  5.0008e-01 -1.6752e+08  0:00:03    4

 absolute pressure limited to 5.000000e+10 in 102105 cells on zone 14524 

 turbulent viscosity limited to viscosity ratio of 1.000000e+05 in 107126 cells 
   497  1.8880e+09  9.3072e-03  3.1911e-02  5.5109e-02  2.2307e-02  1.0000e+00  5.0001e-01 -1.5233e+08  0:00:02    3

 absolute pressure limited to 5.000000e+10 in 106031 cells on zone 14524 

 turbulent viscosity limited to viscosity ratio of 1.000000e+05 in 107321 cells 
   498  1.6036e+09  9.8503e-03  3.2369e-02  5.7569e-02  2.8630e-02  9.9992e-01  4.9997e-01 -1.3287e+08  0:00:01    2

 absolute pressure limited to 5.000000e+10 in 108461 cells on zone 14524 

 turbulent viscosity limited to viscosity ratio of 1.000000e+05 in 107209 cells 
   499  3.1850e+09  1.1567e-02  3.9641e-02  7.5243e-02  2.2952e-02  9.9920e-01  4.9984e-01 -1.1090e+08  0:00:01    1

 absolute pressure limited to 5.000000e+10 in 109303 cells on zone 14524 

 turbulent viscosity limited to viscosity ratio of 1.000000e+05 in 106837 cells 
   500  2.6874e+09  1.0087e-02  3.5675e-02  7.5371e-02  2.5450e-02  9.9953e-01  4.9979e-01 -9.3020e+07  0:00:00    0

> Halting due to end of file on input.
Auto-Transcript Stop Time:  19:32:10, 06 Nov 2024 
Total Transcript Time: 6 Minute 9 Second.

Automatic transcript closed.
