/opt/crc/a/ansys/2024R1/v241/fluent/fluent24.1.0/bin/fluent -r24.1.0 3ddp -t4 -g
/opt/crc/a/ansys/2024R1/v241/fluent/fluent24.1.0/cortex/lnamd64/cortex.24.1.0 -f fluent -g (fluent "3ddp -pshmem  -host -r24.1.0 -t4 -mpi=intel -path/opt/crc/a/ansys/2024R1/v241/fluent -ssh")

Opening input/output transcript to file "/tmp/927504.1.long/worker-241760-3000949/task.1/fluent-20241106-192617-3023679.trn".
Auto-Transcript Start Time:  19:26:17, 06 Nov 2024 
/opt/crc/a/ansys/2024R1/v241/fluent/fluent24.1.0/bin/fluent -r24.1.0 3ddp -pshmem -host -t4 -mpi=intel -path/opt/crc/a/ansys/2024R1/v241/fluent -ssh -cx d32cepyc189.crc.nd.edu:37813:34705
Starting /opt/crc/a/ansys/2024R1/v241/fluent/fluent24.1.0/lnamd64/3ddp_host/fluent.24.1.0 host -cx d32cepyc189.crc.nd.edu:37813:34705 "(list (rpsetvar (QUOTE parallel/function) "fluent 3ddp -flux -node -r24.1.0 -t4 -pshmem -mpi=intel -ssh") (rpsetvar (QUOTE parallel/rhost) "") (rpsetvar (QUOTE parallel/ruser) "") (rpsetvar (QUOTE parallel/nprocs_string) "4") (rpsetvar (QUOTE parallel/auto-spawn?) #t) (rpsetvar (QUOTE parallel/trace-level) 0) (rpsetvar (QUOTE parallel/remote-shell) 1) (rpsetvar (QUOTE parallel/path) "/opt/crc/a/ansys/2024R1/v241/fluent") (rpsetvar (QUOTE parallel/hostsfile) "") (rpsetvar (QUOTE gpuapp/devices) ""))"

              Welcome to ANSYS Fluent 2024 R1

              Copyright 1987-2024 ANSYS, Inc. All Rights Reserved.
              Unauthorized use, distribution or duplication is prohibited.
              This product is subject to U.S. laws governing export and re-export.
              For full Legal Notice, see documentation.

Build Time: Nov 22 2023 10:07:25 EST  Build Id: 10184  
 
Connected License Server List:	7504@linux5-lic.crc.nd.edu

     --------------------------------------------------------------
     This is an academic version of ANSYS FLUENT. Usage of this product
     license is limited to the terms and conditions specified in your ANSYS
     license form, additional terms section.
     --------------------------------------------------------------
Host spawning Node 0 on machine "d32cepyc189.crc.nd.edu" (unix).
/opt/crc/a/ansys/2024R1/v241/fluent/fluent24.1.0/bin/fluent -r24.1.0 3ddp -flux -node -t4 -pshmem -mpi=intel -ssh -mport 10.32.91.145:10.32.91.145:42579:0
Starting /opt/crc/a/ansys/2024R1/v241/fluent/fluent24.1.0/multiport/mpi/lnamd64/intel2021/bin/mpirun --rsh=ssh -f /tmp/fluent-appfile.etracey.3024081 -genv I_MPI_FABRICS shm -genv FLUENT_ARCH lnamd64 -genv I_MPI_DEBUG 0 -genv I_MPI_ADJUST_GATHERV 3 -genv I_MPI_ADJUST_ALLREDUCE 2 -genv I_MPI_PLATFORM auto -genv PYTHONHOME /opt/crc/a/ansys/2024R1/v241/fluent/fluent24.1.0/../../commonfiles/CPython/3_10/linx64/Release/python -genv FLUENT_PROD_DIR /opt/crc/a/ansys/2024R1/v241/fluent/fluent24.1.0 -genv FLUENT_AFFINITY 0 -genv I_MPI_PIN enable -genv KMP_AFFINITY disabled -n 4 /opt/crc/a/ansys/2024R1/v241/fluent/fluent24.1.0/lnamd64/3ddp_node/fluent_mpi.24.1.0 node -mpiw intel -pic shmem -mport 10.32.91.145:10.32.91.145:42579:0

------------------------------------------------------------------------------------
ID    Hostname              Core  O.S.      PID              Vendor                
------------------------------------------------------------------------------------
n0-3  d32cepyc189.crc.nd.e  4/64  Linux-64  3024135-3024138  AMD EPYC 7543 32-Core 
host  d32cepyc189.crc.nd.e        Linux-64  3023876          AMD EPYC 7543 32-Core 

MPI Option Selected: intel
Selected system interconnect: shared-memory
------------------------------------------------------------------------------------


Initializing SGE
Done.
Cleanup script file is /tmp/927504.1.long/worker-241760-3000949/task.1/cleanup-fluent-d32cepyc189.crc.nd.edu-3023876.sh
Key Behavioral Changes:
Fluent Guided Meshing Workflows: 
Workflow template files (.wft) are now saved by default whenever the mesh is saved. You can change the automatic creation of .wft files in Preferences. 
Journaling: 
When Ansys Fluent encounters an invalid input in a journal file that is being replayed, it now raises an error condition and aborts the journal processing. 
Turbulence: 
The value of kappa used in the Spalart-Allmaras model for interior terms was inconsistent with the reference publications of the model. Fluent historically used a value of 0.4187, but to produce results consistent with the published model, the value should be 0.41. This issue was first addressed in a previous Fluent version and access to the kappa value was given in the GUI while keeping the old default of 0.4187. In Fluent 2024 R1, the default value is now changed to 0.41. 
Turbomachinery: 
For Blade Film Cooling, you can now specify stationary holes on the surfaces of a moving/rotating cell zone in transient cases. 
Boundaries previously referred to as "casings" in the Turbo Topology definition are now referred to as "shrouds." 
Density-Based Solver: 
The High Speed Numerics have been updated to increase the robustness of the Roe-FDS numerical flux against shock-instabilities and the carbuncle phenomenon. This modification may produce a slight solution change for cases combining Roe-FDS and HSN. 
Multiphase Models: 
Modeling of open channel flows in conjunction with the translation moving reference frame (MRF) has been improved resulting in more accurate and stable solution. In addition, a solution methodology has been suggested to provide better stability for high-speed hull simulations. 
Parallel Processing: 
Using dynamic process spawning now requires that you manually specify the interconnect as -pethernet for shared memory or distributed memory without InfiniBand, and -pib.ofed for distributed memory over InfiniBand. 
Refer to the Ansys, Inc. Release Notes for a full listing of the new features included in Ansys Fluent 2024 R1. 
 +------------------------------------------------------------------+
 |                    ANSYS Product Improvement                     |
 |                                                                  |
 |   ANSYS Product Improvement Program helps improve ANSYS          |
 |   products. Participating in this program is like filling out a  |
 |   survey. Without interrupting your work, the software reports   |
 |   anonymous usage information such as errors, machine and        |
 |   solver statistics, features used, etc. to ANSYS. We never      |
 |   use the data to identify or contact you.                       |
 |   The data does NOT contain:                                     |
 |   - Any personally identifiable information including names,     |
 |     IP addresses, file names, part names, etc.                   |
 |   - Any information about your geometry or design specific       |
 |     inputs.                                                      |
 |   You can stop participation at any time. To change your         |
 |   selection go to Help >> ANSYS Product Improvement Program      |
 |   in the GUI.                                                    |
 |   For more information about the ANSYS Privacy Policy, please    |
 |   check: http://www.ansys.com/privacy                            |
 |                                                                  |
 +------------------------------------------------------------------+

> Fast-loading "/opt/crc/a/ansys/2024R1/v241/fluent/fluent24.1.0/addons/afd/lib/hdfio.bin"
Done.
WARNING: Rank:0 Machine d32cepyc189.crc.nd.edu has 51 % of RAM filled with file buffer caches.
This can cause potential performance issues. Please use -cflush flag to flush the cache. 


Reading from d32cepyc189.crc.nd.edu:"/tmp/927504.1.long/worker-241760-3000949/task.1/case.cas.h5" in NODE0 mode ...
  Reading mesh ...
      118678 cells,     1 cell zone  ...
         118678 polyhedra cells,  zone id: 14550
      680529 faces,     7 face zones ...
           5700 polygonal symmetry faces,  zone id: 41
           5840 polygonal symmetry faces,  zone id: 42
            464 polygonal pressure-far-field faces,  zone id: 43
            458 polygonal pressure-far-field faces,  zone id: 44
           1888 polygonal pressure-far-field faces,  zone id: 45
          13379 polygonal wall faces,  zone id: 46
         652800 polygonal interior faces,  zone id: 14549
      495195 nodes,     1 node zone  ...
  Done.


Building...
     mesh
	auto partitioning mesh by Metis (fast),
	distributing mesh
		parts....,
		faces....,
		nodes....,
		cells....,
        bandwidth reduction using Reverse Cuthill-McKee: 30529/2075 = 14.7128
  Reading boundary layer flags ...
  Done.

     materials,
     interface,
     domains,
	mixture
     zones,
	symmetry1
	symmetry2
	inlet
	outlet
	farfield
	launchvehicle
	interior--flow-field
	flow-field
     parallel,
Done.

> adjoint/                parallel/               server/
define/                 parametric-study/       solve/
display/                plot/                   surface/
exit                    preferences/            turbo-workflow/
file/                   print-license-usage     views/
mesh/                   report/

> 
> adjoint/                parallel/               server/
define/                 parametric-study/       solve/
display/                plot/                   surface/
exit                    preferences/            turbo-workflow/
file/                   print-license-usage     views/
mesh/                   report/

> 
> adjoint/                parallel/               server/
define/                 parametric-study/       solve/
display/                plot/                   surface/
exit                    preferences/            turbo-workflow/
file/                   print-license-usage     views/
mesh/                   report/

> air is a fluid

Density
no data required.


> adjoint/                parallel/               server/
define/                 parametric-study/       solve/
display/                plot/                   surface/
exit                    preferences/            turbo-workflow/
file/                   print-license-usage     views/
mesh/                   report/

> (farfield outlet inlet)

> (farfield outlet inlet)

> (farfield outlet inlet)

> adjoint/                parallel/               server/
define/                 parametric-study/       solve/
display/                plot/                   surface/
exit                    preferences/            turbo-workflow/
file/                   print-license-usage     views/
mesh/                   report/

> (launchvehicle)

> adjoint/                parallel/               server/
define/                 parametric-study/       solve/
display/                plot/                   surface/
exit                    preferences/            turbo-workflow/
file/                   print-license-usage     views/
mesh/                   report/

> 
> 
> 
> 
> 
> 
> adjoint/                parallel/               server/
define/                 parametric-study/       solve/
display/                plot/                   surface/
exit                    preferences/            turbo-workflow/
file/                   print-license-usage     views/
mesh/                   report/

> 
> 
> 
> adjoint/                parallel/               server/
define/                 parametric-study/       solve/
display/                plot/                   surface/
exit                    preferences/            turbo-workflow/
file/                   print-license-usage     views/
mesh/                   report/

> 
> 
> 
> adjoint/                parallel/               server/
define/                 parametric-study/       solve/
display/                plot/                   surface/
exit                    preferences/            turbo-workflow/
file/                   print-license-usage     views/
mesh/                   report/

> 
> adjoint/                parallel/               server/
define/                 parametric-study/       solve/
display/                plot/                   surface/
exit                    preferences/            turbo-workflow/
file/                   print-license-usage     views/
mesh/                   report/

> 
Initialize using the hybrid initialization method.

Checking case topology... 
-This case has multiple farfield bc 
-Case will be initialized with constant parameters

	iter		scalar-0

	1		1.000000e+00
	2		5.356563e-04
	3		9.887144e-05
	4		1.721591e-05
	5		3.695272e-06
	6		7.731697e-07
	7		1.600070e-07
	8		3.305455e-08
	9		7.062540e-09
	10		1.548175e-09

Hybrid initialization is done.

Note: Settings to improve the robustness of pathline and
      particle tracking have been automatically enabled.


> 
  iter  continuity  x-velocity  y-velocity  z-velocity      energy           k       omega  report-def     time/iter
     1  1.0000e+00  1.5480e-06  2.8109e-06  2.7221e-06  3.4868e-08  9.5529e-01  4.8760e-01  2.1119e+00  0:06:16  499
     2  6.7005e-01  1.3619e-06  1.6939e-06  1.6331e-06  2.6142e-08  9.2674e-01  4.8012e-01  2.7640e+00  0:06:23  498
     3  5.1147e-01  1.3075e-06  1.0918e-06  1.0618e-06  2.0067e-08  8.6508e-01  4.6807e-01  2.6897e+00  0:06:19  497
     4  4.1646e-01  1.2436e-06  6.7518e-07  6.5887e-07  1.5966e-08  7.5810e-01  4.4853e-01  2.5915e+00  0:06:15  496
     5  4.1399e-01  1.3010e-06  5.1483e-07  5.1025e-07  1.5223e-08  4.7873e-01  4.1717e-01  2.5159e+00  0:06:13  495
     6  4.1196e-01  1.2501e-06  4.1069e-07  4.0098e-07  1.4812e-08  1.8146e-01  3.6887e-01  2.4691e+00  0:06:10  494
     7  4.9123e-01  1.5089e-06  4.1325e-07  3.9472e-07  1.5851e-08  5.5547e-02  3.0368e-01  2.4454e+00  0:06:06  493
     8  5.8022e-01  1.5688e-06  4.3568e-07  4.2726e-07  1.8074e-08  1.8914e-02  2.2119e-01  2.4391e+00  0:06:03  492
     9  7.7893e-01  2.2094e-06  5.1054e-07  4.8617e-07  1.9303e-08  1.5033e-02  1.4181e-01  2.4418e+00  0:06:02  491
    10  1.0489e+00  2.6959e-06  6.1555e-07  6.0822e-07  2.4969e-08  1.6989e-02  7.9456e-02  2.4503e+00  0:06:01  490
    11  1.5278e+00  4.0138e-06  8.2872e-07  8.0106e-07  2.9548e-08  1.5856e-02  4.4629e-02  2.4595e+00  0:06:07  489

  iter  continuity  x-velocity  y-velocity  z-velocity      energy           k       omega  report-def     time/iter
    12  2.1827e+00  5.4723e-06  1.1088e-06  1.0758e-06  4.1216e-08  1.8343e-02  2.7077e-02  2.4676e+00  0:06:12  488
    13  3.2125e+00  8.1121e-06  1.5731e-06  1.5275e-06  5.4313e-08  1.4514e-02  1.5796e-02  2.4722e+00  0:06:15  487
    14  4.7288e+00  1.1711e-05  2.2466e-06  2.1647e-06  7.9224e-08  1.5543e-02  1.4678e-02  2.4772e+00  0:06:18  486
    15  7.0061e+00  1.7405e-05  3.2406e-06  3.1421e-06  1.1235e-07  1.2936e-02  9.0233e-03  2.4765e+00  0:06:19  485
    16  1.0456e+01  2.5703e-05  4.7702e-06  4.5897e-06  1.6809e-07  1.4025e-02  1.2029e-02  2.4805e+00  0:06:22  484
    17  1.5505e+01  3.8251e-05  6.9514e-06  6.7168e-06  2.4319e-07  1.2436e-02  7.5362e-03  2.4747e+00  0:06:24  483
    18  2.3317e+01  5.7005e-05  1.0362e-05  9.9732e-06  3.7307e-07  1.4901e-02  1.2548e-02  2.4820e+00  0:06:25  482
    19  3.4409e+01  8.4726e-05  1.5113e-05  1.4567e-05  5.3155e-07  1.4307e-02  7.7323e-03  2.4693e+00  0:06:25  481
    20  5.2210e+01  1.2692e-04  2.2767e-05  2.1906e-05  8.4698e-07  2.0075e-02  1.5783e-02  2.4866e+00  0:06:24  480
    21  7.6043e+01  1.8776e-04  3.2907e-05  3.1662e-05  1.1493e-06  2.1943e-02  1.0521e-02  2.4607e+00  0:06:24  479
    22  1.1729e+02  2.8313e-04  5.0528e-05  4.8552e-05  1.9624e-06  3.3593e-02  2.3625e-02  2.5004e+00  0:06:23  478

  iter  continuity  x-velocity  y-velocity  z-velocity      energy           k       omega  report-def     time/iter
    23  1.6556e+02  4.1438e-04  7.0434e-05  6.7634e-05  2.4060e-06  4.2537e-02  1.9731e-02  2.4452e+00  0:06:22  477
    24  2.6494e+02  6.3296e-04  1.1417e-04  1.0942e-04  4.7320e-06  6.5140e-02  4.1441e-02  2.5341e+00  0:06:22  476
    25  3.5021e+02  9.0387e-04  1.4867e-04  1.4259e-04  4.6652e-06  8.7496e-02  4.2015e-02  2.4142e+00  0:06:23  475
    26  6.0492e+02  1.4185e-03  2.6368e-04  2.5156e-04  1.2351e-05  1.3557e-01  8.0716e-02  2.6096e+00  0:06:24  474
    27  7.0463e+02  1.9364e-03  3.1200e-04  3.0217e-04  7.9307e-06  1.7550e-01  8.8028e-02  2.3529e+00  0:06:15  473
    28  1.4711e+03  3.2376e-03  6.5119e-04  6.1697e-04  4.0605e-05  3.0025e-01  1.7118e-01  2.8021e+00  0:06:15  472
    29  1.3571e+03  4.3622e-03  7.0430e-04  6.9558e-04  1.4125e-05  3.2956e-01  1.7369e-01  2.2590e+00  0:06:07  471
    30  3.3312e+03  7.2117e-03  1.6810e-03  1.5795e-03  1.1037e-04  5.6142e-01  3.0992e-01  3.0702e+00  0:06:09  470
    31  2.3808e+03  9.1633e-03  1.7977e-03  1.8133e-03  5.3653e-05  4.9599e-01  2.7916e-01  2.1029e+00  0:06:02  469
    32  4.6196e+03  1.3945e-02  3.7422e-03  3.5538e-03  1.8035e-04  4.6014e-01  1.8218e-01  2.7732e+00  0:05:56  468
    33  2.4664e+03  1.1381e-02  2.1951e-03  1.9428e-03  1.8213e-04  4.3015e-01  2.7447e-01  1.6903e+00  0:05:52  467

  iter  continuity  x-velocity  y-velocity  z-velocity      energy           k       omega  report-def     time/iter
    34  5.3036e+03  2.3456e-02  5.4951e-03  5.1448e-03  3.0456e-04  6.4236e-01  3.2943e-01  2.5254e+00  0:05:48  466
    35  2.8120e+03  1.2111e-02  2.9858e-03  2.8413e-03  1.7306e-04  4.7349e-01  2.8094e-01  1.5628e+00  0:05:45  465
    36  5.9578e+03  2.5682e-02  5.1414e-03  4.8773e-03  3.7334e-04  5.5188e-01  2.9284e-01  2.3143e+00  0:05:42  464
    37  2.9104e+03  1.4309e-02  3.8759e-03  3.5410e-03  2.5213e-04  4.8734e-01  2.8385e-01  1.3466e+00  0:05:41  463
    38  6.4261e+03  3.1309e-02  5.4271e-03  5.1682e-03  4.1567e-04  5.5295e-01  2.9862e-01  2.1861e+00  0:05:40  462
    39  3.2304e+03  1.6649e-02  4.4343e-03  4.2639e-03  2.6164e-04  4.9143e-01  2.9497e-01  1.2969e+00  0:05:40  461
    40  6.6493e+03  3.3686e-02  5.7530e-03  5.8033e-03  4.5108e-04  4.3060e-01  2.3974e-01  1.9433e+00  0:05:38  460
    41  3.2080e+03  2.0803e-02  5.4308e-03  5.4578e-03  3.5105e-04  4.2127e-01  2.6572e-01  1.0226e+00  0:05:36  459
    42  6.1375e+03  3.8288e-02  6.3151e-03  6.4436e-03  5.0416e-04  3.6179e-01  2.0622e-01  1.5584e+00  0:05:35  458
    43  3.3436e+03  2.2739e-02  5.2249e-03  5.5043e-03  6.3397e-04  3.3049e-01  2.3273e-01  6.9180e-01  0:05:33  457
    44  6.9373e+03  5.1835e-02  8.3464e-03  8.7370e-03  8.5317e-04  4.6365e-01  3.0763e-01  1.2770e+00  0:05:32  456

  iter  continuity  x-velocity  y-velocity  z-velocity      energy           k       omega  report-def     time/iter
    45  3.5023e+03  2.5861e-02  7.0780e-03  7.6883e-03  5.0274e-04  4.6101e-01  2.7692e-01  4.1964e-01  0:05:30  455
    46  6.0040e+03  4.9771e-02  8.2213e-03  9.0146e-03  7.7762e-04  2.7029e-01  2.0298e-01  9.4345e-01  0:05:29  454
    47  4.1664e+03  3.4677e-02  7.8086e-03  8.9552e-03  9.8603e-04  3.1020e-01  2.3077e-01  1.3093e-01  0:05:28  453
    48  6.8741e+03  7.1314e-02  1.0514e-02  1.0815e-02  1.2789e-03  4.5841e-01  2.9975e-01  5.8109e-01  0:05:27  452
    49  4.6120e+03  4.1305e-02  1.0325e-02  1.0509e-02  1.2091e-03  5.0543e-01  3.0628e-01 -1.8760e-01  0:05:26  451
    50  6.5546e+03  7.9529e-02  1.2665e-02  1.2410e-02  3.3683e-03  3.8189e-01  2.6997e-01  1.7480e-01  0:05:26  450
    51  5.8846e+03  7.2525e-02  1.1529e-02  1.1790e-02  3.3320e-03  5.4640e-01  3.6073e-01 -3.3372e-01  0:05:25  449
    52  7.2420e+03  9.8827e-02  1.7380e-02  1.4965e-02  1.8477e-03  5.9374e-01  3.5354e-01 -3.0117e-01  0:05:25  448
    53  7.1871e+03  7.8586e-02  1.5107e-02  1.7223e-02  7.6892e-03  1.2510e+00  9.0284e-01 -3.6615e-01  0:05:24  447
    54  7.2518e+03  9.5010e-02  1.6623e-02  1.6599e-02  2.1051e-03  9.4183e-01  4.8177e-01 -6.0580e-01  0:05:23  446
    55  8.2731e+03  8.2488e-02  1.6011e-02  1.5594e-02  6.3439e-03  9.0105e-01  5.0614e-01 -7.6181e-01  0:05:22  445

  iter  continuity  x-velocity  y-velocity  z-velocity      energy           k       omega  report-def     time/iter
    56  8.0841e+03  1.2405e-01  1.9692e-02  2.0468e-02  2.7613e-03  8.8922e-01  4.7691e-01 -8.7240e-01  0:05:22  444
    57  8.6576e+03  9.7458e-02  1.7626e-02  1.6902e-02  1.8578e-02  9.3858e-01  4.7624e-01 -7.6874e-01  0:05:22  443
    58  8.7071e+03  1.5526e-01  1.9867e-02  1.9779e-02  5.7279e-03  8.3984e-01  4.5472e-01 -8.0367e-01  0:05:22  442
    59  9.2951e+03  1.1609e-01  1.8357e-02  1.6747e-02  5.3714e-03  7.8329e-01  4.6573e-01 -2.9088e-01  0:05:21  441
    60  9.9233e+03  1.1738e-01  2.1063e-02  2.0103e-02  9.3619e-03  1.2294e+00  7.3053e-01 -2.8915e-01  0:05:20  440
    61  1.0409e+04  1.2767e-01  2.1995e-02  2.2139e-02  2.0364e-02  9.8599e-01  5.0795e-01 -2.2967e-01  0:05:19  439
    62  1.1963e+04  1.7142e-01  2.9439e-02  2.2618e-02  9.7220e-03  1.0647e+00  5.5238e-01 -5.0073e-02  0:05:18  438
    63  1.1940e+04  1.4289e-01  2.7053e-02  2.6118e-02  7.9429e-03  9.6871e-01  4.9755e-01  2.2390e-01  0:05:17  437
    64  1.1761e+04  1.1167e-01  2.0922e-02  2.0370e-02  7.0645e-03  9.5820e-01  4.9657e-01  1.2221e-01  0:05:16  436
    65  1.2210e+04  1.5013e-01  2.6412e-02  2.5131e-02  6.3595e-03  9.3202e-01  4.9825e-01  2.3940e-01  0:05:15  435
    66  1.2088e+04  1.2955e-01  2.5929e-02  2.5215e-02  9.8146e-03  9.0303e-01  4.7259e-01  2.7425e-01  0:05:14  434

  iter  continuity  x-velocity  y-velocity  z-velocity      energy           k       omega  report-def     time/iter
    67  1.3111e+04  1.4657e-01  2.3998e-02  2.2895e-02  7.6607e-03  1.0399e+00  5.2144e-01  3.6997e-01  0:05:13  433
    68  1.3341e+04  1.2765e-01  2.4979e-02  2.1322e-02  8.5133e-03  1.0300e+00  5.5211e-01  4.3973e-01  0:05:13  432
    69  1.3232e+04  1.3334e-01  2.7339e-02  2.6508e-02  9.6631e-03  1.1182e+00  5.9421e-01  3.3645e-01  0:05:13  431
    70  1.4390e+04  1.2909e-01  2.8060e-02  2.3630e-02  1.3703e-02  9.9021e-01  5.1318e-01  4.8084e-01  0:05:11  430
    71  1.4954e+04  1.3911e-01  2.3334e-02  2.3631e-02  7.1918e-03  9.7448e-01  4.9871e-01  5.1108e-01  0:05:10  429
    72  1.5093e+04  1.1618e-01  2.5790e-02  2.4132e-02  1.2095e-02  9.8705e-01  5.1080e-01  3.7386e-01  0:05:09  428
    73  1.4455e+04  1.4116e-01  2.6495e-02  2.9117e-02  7.3964e-03  1.0027e+00  5.1009e-01  3.1713e-01  0:05:09  427
    74  1.6144e+04  1.1933e-01  2.6993e-02  2.5853e-02  9.2182e-03  9.6746e-01  5.0044e-01  3.0498e-01  0:05:08  426
    75  1.6810e+04  1.1596e-01  2.4301e-02  2.3826e-02  7.9725e-03  1.1364e+00  5.9066e-01 -1.9926e-01  0:05:07  425
    76  1.7690e+04  1.2935e-01  2.6629e-02  2.6898e-02  1.0347e-02  1.0189e+00  5.2577e-01 -4.5243e-01  0:05:06  424
    77  1.8104e+04  1.3185e-01  2.5776e-02  2.5957e-02  8.2761e-03  9.8027e-01  5.0567e-01 -4.9572e-01  0:05:05  423

  iter  continuity  x-velocity  y-velocity  z-velocity      energy           k       omega  report-def     time/iter
    78  1.9634e+04  1.2079e-01  2.6432e-02  2.7915e-02  1.8635e-02  1.0064e+00  5.2218e-01 -3.5443e-01  0:05:05  422
    79  2.0837e+04  1.2824e-01  2.7825e-02  2.7135e-02  8.5698e-03  1.0327e+00  5.2715e-01 -4.6728e-01  0:05:05  421
    80  2.1294e+04  1.2814e-01  2.8603e-02  3.1482e-02  1.2551e-02  9.6815e-01  4.9395e-01 -3.6637e-01  0:05:05  420
    81  2.5245e+04  1.4797e-01  2.7687e-02  3.1487e-02  1.8505e-02  1.1844e+00  6.1839e-01 -2.8687e+00  0:05:04  419
    82  2.6110e+04  1.0544e-01  2.1711e-02  2.5414e-02  1.6664e-02  9.9872e-01  5.1156e-01 -1.7757e+00  0:05:03  418
    83  3.4005e+04  1.6020e-01  2.6927e-02  2.9192e-02  2.5315e-02  1.2415e+00  6.4531e-01 -1.7613e+00  0:05:03  417
    84  3.1521e+04  1.2139e-01  2.4625e-02  2.7364e-02  1.6398e-02  9.7366e-01  5.0643e-01  6.6375e-01  0:05:02  416
    85  3.4208e+04  1.3707e-01  2.9857e-02  3.2275e-02  1.5651e-02  1.0353e+00  5.3407e-01  1.8846e+00  0:05:01  415
    86  3.2138e+04  1.4187e-01  3.3646e-02  3.3614e-02  1.0378e-02  9.7802e-01  5.0276e-01  3.1980e-01  0:05:01  414
    87  3.3639e+04  1.4727e-01  3.4387e-02  3.4220e-02  1.4226e-02  9.8725e-01  5.1145e-01 -8.3723e-01  0:05:00  413
    88  3.1078e+04  1.5555e-01  3.7020e-02  3.7904e-02  1.8365e-02  1.0170e+00  5.1061e-01  8.6979e-01  0:05:00  412

  iter  continuity  x-velocity  y-velocity  z-velocity      energy           k       omega  report-def     time/iter
    89  3.3980e+04  1.6438e-01  3.5449e-02  3.6978e-02  1.1988e-02  1.0245e+00  5.2133e-01  1.1326e+00  0:04:59  411
    90  3.9047e+04  1.4605e-01  3.6798e-02  3.5379e-02  2.1081e-02  1.0852e+00  5.5484e-01 -4.5232e-01  0:04:59  410
    91  3.6792e+04  1.1759e-01  2.5758e-02  2.7480e-02  1.6520e-02  1.0073e+00  5.2199e-01 -2.4316e-01  0:04:59  409
    92  4.1359e+04  1.4828e-01  3.0498e-02  3.0696e-02  1.9063e-02  1.2019e+00  6.2615e-01  1.1224e+00  0:04:58  408
    93  4.1258e+04  1.2436e-01  2.9087e-02  2.8179e-02  1.7380e-02  9.8160e-01  5.0168e-01  2.5955e+00  0:04:56  407
    94  4.6304e+04  1.3018e-01  3.4370e-02  3.1234e-02  1.4191e-02  1.0436e+00  5.3545e-01  1.0268e+00  0:04:56  406
    95  4.7658e+04  1.2000e-01  3.3819e-02  3.2382e-02  1.9203e-02  1.0001e+00  5.1682e-01  2.7962e-01  0:04:56  405
    96  4.7345e+04  1.0684e-01  2.9102e-02  2.9318e-02  1.7378e-02  1.0319e+00  5.2343e-01  1.2416e+00  0:04:55  404
    97  5.5840e+04  1.2323e-01  3.4461e-02  3.4508e-02  1.7902e-02  1.0697e+00  5.5666e-01  1.5516e+00  0:04:54  403
    98  6.1953e+04  1.0550e-01  3.4715e-02  3.2124e-02  2.9234e-02  9.9969e-01  5.2816e-01  1.1917e+00  0:04:53  402
    99  6.8510e+04  9.6139e-02  2.6603e-02  2.6452e-02  2.6075e-02  9.9687e-01  5.2241e-01 -1.9835e-01  0:04:53  401

  iter  continuity  x-velocity  y-velocity  z-velocity      energy           k       omega  report-def     time/iter
   100  7.2551e+04  9.1260e-02  2.7792e-02  2.5964e-02  2.4164e-02  1.0268e+00  5.3918e-01  1.9676e+00  0:04:52  400
   101  8.7129e+04  8.7727e-02  2.8409e-02  3.0625e-02  2.6561e-02  1.0535e+00  5.6272e-01  4.9602e+00  0:04:51  399
   102  1.0396e+05  7.9575e-02  2.7711e-02  2.8173e-02  3.3313e-02  9.5484e-01  5.1154e-01  4.5015e+00  0:04:51  398
   103  1.2987e+05  7.0863e-02  2.6512e-02  2.6138e-02  3.5395e-02  9.1052e-01  5.2413e-01 -5.9556e-01  0:04:50  397
   104  1.6745e+05  6.2209e-02  2.5586e-02  2.4274e-02  2.8179e-02  8.3157e-01  4.5818e-01  3.3532e+00  0:04:44  396
   105  2.2923e+05  5.0351e-02  2.2763e-02  2.3125e-02  2.8463e-02  7.5371e-01  4.4775e-01  2.4569e+00  0:04:38  395
   106  3.4363e+05  4.4002e-02  2.2578e-02  2.6080e-02  2.1399e-02  6.6048e-01  4.6479e-01  2.4765e+00  0:04:34  394
   107  5.5476e+05  3.0463e-02  2.1520e-02  2.6096e-02  1.9196e-02  5.9291e-01  4.7447e-01  4.8676e+00  0:04:30  393
   108  9.2818e+05  2.3860e-02  2.3243e-02  2.7885e-02  1.8757e-02  5.1137e-01  4.8524e-01  1.5232e+01  0:04:28  392
   109  1.6011e+06  2.0375e-02  2.5911e-02  2.9072e-02  1.8468e-02  4.2459e-01  5.0362e-01  4.6919e+01  0:04:26  391
   110  2.7930e+06  1.9341e-02  2.8917e-02  2.9869e-02  1.7173e-02  4.1931e-01  4.9389e-01  1.0060e+02  0:04:24  390

  iter  continuity  x-velocity  y-velocity  z-velocity      energy           k       omega  report-def     time/iter
   111  4.7545e+06  2.0559e-02  3.1348e-02  2.9812e-02  1.4225e-02  4.9103e-01  4.3817e-01  2.0621e+02  0:04:22  389
   112  7.8363e+06  2.1073e-02  3.2267e-02  2.9190e-02  1.1074e-02  4.0684e-01  3.9192e-01  3.9472e+02  0:04:21  388
   113  1.2740e+07  2.0650e-02  3.1715e-02  2.7833e-02  8.4934e-03  3.3416e-01  3.7710e-01  6.9930e+02  0:04:19  387
   114  2.0527e+07  2.0283e-02  2.9949e-02  2.5848e-02  6.5900e-03  2.6915e-01  3.7986e-01  1.2261e+03  0:04:18  386
   115  3.2969e+07  1.9966e-02  2.7269e-02  2.3517e-02  5.4257e-03  2.5527e-01  3.8171e-01  1.9044e+03  0:04:16  385
   116  5.2996e+07  1.9866e-02  2.4358e-02  2.1343e-02  4.5111e-03  2.5750e-01  3.7944e-01  3.0134e+03  0:04:15  384
   117  8.5218e+07  1.9853e-02  2.1747e-02  1.9426e-02  3.8207e-03  2.6031e-01  3.7722e-01  4.9408e+03  0:04:14  383
   118  1.3695e+08  1.9832e-02  1.9534e-02  1.8044e-02  3.2436e-03  2.6875e-01  3.6877e-01  8.1542e+03  0:04:13  382

 turbulent viscosity limited to viscosity ratio of 1.000000e+05 in 1 cells 
   119  2.1928e+08  1.9563e-02  1.8192e-02  1.7058e-02  2.9177e-03  2.7236e-01  3.6723e-01  1.3289e+04  0:04:13  381

 turbulent viscosity limited to viscosity ratio of 1.000000e+05 in 13 cells 
   120  3.5046e+08  1.9420e-02  1.7567e-02  1.6343e-02  2.8103e-03  2.7915e-01  3.6457e-01  2.2136e+04  0:04:13  380

 turbulent viscosity limited to viscosity ratio of 1.000000e+05 in 156 cells 
   121  5.6009e+08  1.9089e-02  1.7693e-02  1.5993e-02  2.8759e-03  2.9285e-01  3.6168e-01  3.5822e+04  0:04:12  379

 turbulent viscosity limited to viscosity ratio of 1.000000e+05 in 4974 cells 

  iter  continuity  x-velocity  y-velocity  z-velocity      energy           k       omega  report-def     time/iter
   122  8.9265e+08  1.8836e-02  1.8273e-02  1.6322e-02  3.0380e-03  3.0828e-01  3.5590e-01  5.5439e+04  0:04:11  378

 turbulent viscosity limited to viscosity ratio of 1.000000e+05 in 12591 cells 
   123  1.4234e+09  1.8450e-02  1.8861e-02  1.6942e-02  3.3651e-03  3.1724e-01  3.6518e-01  7.8037e+04  0:04:10  377

 turbulent viscosity limited to viscosity ratio of 1.000000e+05 in 29436 cells 
   124  2.3114e+09  1.8478e-02  2.0032e-02  1.7847e-02  4.0232e-03  3.0949e-01  3.6427e-01  1.0024e+05  0:04:09  376

 turbulent viscosity limited to viscosity ratio of 1.000000e+05 in 53383 cells 
   125  3.7508e+09  1.8008e-02  2.1165e-02  1.8256e-02  3.8159e-03  3.1522e-01  3.6928e-01  1.2490e+05  0:04:08  375

 turbulent viscosity limited to viscosity ratio of 1.000000e+05 in 69188 cells 
   126  6.0891e+09  1.7906e-02  2.1760e-02  1.8034e-02  3.2134e-03  2.8397e-01  3.6514e-01  1.2958e+05  0:04:08  374

 turbulent viscosity limited to viscosity ratio of 1.000000e+05 in 79659 cells 
   127  9.9306e+09  1.7966e-02  2.1100e-02  1.7124e-02  3.0049e-03  3.9103e-01  3.8675e-01  1.1821e+05  0:04:07  373

 turbulent viscosity limited to viscosity ratio of 1.000000e+05 in 87694 cells 
   128  1.6065e+10  1.8089e-02  2.0040e-02  1.6829e-02  2.7473e-03  8.5066e-01  4.6145e-01  1.0228e+05  0:04:07  372

 turbulent viscosity limited to viscosity ratio of 1.000000e+05 in 93120 cells 
   129  2.5970e+10  1.8639e-02  1.8887e-02  1.6318e-02  2.9774e-03  5.8436e-01  4.1951e-01  1.7376e+05  0:04:06  371

 turbulent viscosity limited to viscosity ratio of 1.000000e+05 in 95529 cells 
   130  4.2084e+10  1.8663e-02  1.8388e-02  1.5625e-02  6.3175e-03  3.4391e-01  4.0519e-01  5.5512e+05  0:04:11  370

 turbulent viscosity limited to viscosity ratio of 1.000000e+05 in 95804 cells 
   131  6.6000e+10  2.1002e-02  2.0672e-02  1.7571e-02  6.3662e-03  4.0704e-01  2.9235e-01  8.2453e+05  0:04:10  369

 absolute pressure limited to 5.000000e+10 in 60 cells on zone 14550 

 turbulent viscosity limited to viscosity ratio of 1.000000e+05 in 96728 cells 
   132  1.0726e+11  1.4368e-02  1.8901e-02  1.5772e-02  8.2961e-03  3.0875e-01  4.8767e-01  1.7633e+06  0:04:14  368

 absolute pressure limited to 5.000000e+10 in 118658 cells on zone 14550 

 turbulent viscosity limited to viscosity ratio of 1.000000e+05 in 95895 cells 

  iter  continuity  x-velocity  y-velocity  z-velocity      energy           k       omega  report-def     time/iter
   133  1.6612e+11  2.2672e-02  2.1337e-02  1.8860e-02  8.6036e-03  4.6929e-01  3.2734e-01  3.4021e+04  0:04:12  367

 absolute pressure limited to 5.000000e+10 in 118670 cells on zone 14550 

 turbulent viscosity limited to viscosity ratio of 1.000000e+05 in 96672 cells 
   134  2.3646e+11  1.1891e-02  3.5332e-02  3.3187e-02  1.7444e-02  8.7273e-01  4.3177e-01  3.4892e+04  0:04:15  366

 absolute pressure limited to 5.000000e+10 in 118675 cells on zone 14550 

 turbulent viscosity limited to viscosity ratio of 1.000000e+05 in 95493 cells 
   135  1.9521e+11  2.3943e-02  4.1778e-02  4.0973e-02  9.1674e-03  6.7513e-01  3.0529e-01  3.7771e+04  0:04:12  365

 absolute pressure limited to 5.000000e+10 in 118678 cells on zone 14550 

 turbulent viscosity limited to viscosity ratio of 1.000000e+05 in 97494 cells 
   136  1.4099e+11  1.2993e-02  4.4247e-02  4.3023e-02  1.5806e-02  9.8532e-01  4.8699e-01  2.7153e+04  0:04:08  364

 absolute pressure limited to 5.000000e+10 in 118460 cells on zone 14550 

 turbulent viscosity limited to viscosity ratio of 1.000000e+05 in 98168 cells 
   137  1.6830e+11  1.2049e-02  6.4914e-02  5.7271e-02  5.8143e-02  1.0091e+00  5.0651e-01  8.1128e+03  0:04:06  363

 absolute pressure limited to 5.000000e+10 in 117888 cells on zone 14550 

 turbulent viscosity limited to viscosity ratio of 1.000000e+05 in 102597 cells 
   138  1.2455e+11  1.2161e-02  6.8603e-02  8.0686e-02  7.1772e-02  1.0002e+00  5.0016e-01  5.3699e+03  0:04:03  362

 absolute pressure limited to 5.000000e+10 in 118478 cells on zone 14550 

 turbulent viscosity limited to viscosity ratio of 1.000000e+05 in 102407 cells 
   139  1.3199e+11  5.7934e-02  6.6725e-02  7.7871e-02  4.4089e-02  9.9968e-01  4.9979e-01  4.1328e+03  0:04:07  361

 absolute pressure limited to 5.000000e+10 in 118347 cells on zone 14550 

 turbulent viscosity limited to viscosity ratio of 1.000000e+05 in 102471 cells 
   140  1.1401e+11  6.0949e-02  6.1204e-02  6.3827e-02  3.0093e-02  9.9874e-01  4.9962e-01  5.5949e+03  0:04:10  360

 absolute pressure limited to 5.000000e+10 in 118442 cells on zone 14550 

 turbulent viscosity limited to viscosity ratio of 1.000000e+05 in 101304 cells 
   141  1.0214e+11  3.5487e-02  4.9706e-02  5.2251e-02  2.7243e-02  1.0010e+00  4.9996e-01  1.4729e+04  0:04:13  359

 absolute pressure limited to 5.000000e+10 in 118376 cells on zone 14550 

 turbulent viscosity limited to viscosity ratio of 1.000000e+05 in 104063 cells 
   142  1.1231e+11  2.8241e-02  7.1364e-02  6.8674e-02  2.7504e-02  1.0015e+00  5.0023e-01  1.4233e+04  0:04:20  358

 absolute pressure limited to 5.000000e+10 in 118415 cells on zone 14550 

 turbulent viscosity limited to viscosity ratio of 1.000000e+05 in 105108 cells 
   143  1.4856e+11  3.9191e-02  6.9507e-02  6.8409e-02  3.5969e-02  1.0048e+00  5.0139e-01  1.1377e+04  0:04:11  357

 absolute pressure limited to 5.000000e+10 in 118444 cells on zone 14550 

 turbulent viscosity limited to viscosity ratio of 1.000000e+05 in 105346 cells 

  iter  continuity  x-velocity  y-velocity  z-velocity      energy           k       omega  report-def     time/iter
   144  1.5157e+11  4.5370e-02  6.5719e-02  6.7486e-02  3.3069e-02  1.0003e+00  4.9995e-01  9.1197e+03  0:04:13  356

 absolute pressure limited to 5.000000e+10 in 118531 cells on zone 14550 

 turbulent viscosity limited to viscosity ratio of 1.000000e+05 in 105017 cells 
   145  1.7274e+11  3.2529e-02  7.0145e-02  7.1076e-02  3.0188e-02  1.0024e+00  5.0028e-01  9.8009e+03  0:04:34  355

 absolute pressure limited to 5.000000e+10 in 118498 cells on zone 14550 

 turbulent viscosity limited to viscosity ratio of 1.000000e+05 in 105331 cells 
   146  1.9752e+11  2.8440e-02  6.7794e-02  6.7213e-02  3.5165e-02  1.0012e+00  5.0032e-01  9.1423e+03  0:04:31  354

 absolute pressure limited to 5.000000e+10 in 118410 cells on zone 14550 

 turbulent viscosity limited to viscosity ratio of 1.000000e+05 in 104961 cells 
   147  1.8402e+11  2.7690e-02  5.5448e-02  5.8265e-02  3.2771e-02  1.0030e+00  5.0080e-01  8.0727e+03  0:04:29  353

 absolute pressure limited to 5.000000e+10 in 118472 cells on zone 14550 

 turbulent viscosity limited to viscosity ratio of 1.000000e+05 in 105736 cells 
   148  1.9166e+11  2.9769e-02  5.6989e-02  6.3508e-02  3.0175e-02  9.9943e-01  4.9885e-01  7.6929e+03  0:04:27  352

 absolute pressure limited to 5.000000e+10 in 118409 cells on zone 14550 

 turbulent viscosity limited to viscosity ratio of 1.000000e+05 in 105016 cells 
   149  2.1374e+11  2.6272e-02  6.1434e-02  6.6031e-02  3.0815e-02  1.0003e+00  4.9961e-01  7.1492e+03  0:04:26  351

 absolute pressure limited to 5.000000e+10 in 118418 cells on zone 14550 

 turbulent viscosity limited to viscosity ratio of 1.000000e+05 in 105491 cells 
   150  2.1275e+11  2.4350e-02  6.0649e-02  6.3151e-02  3.2392e-02  1.0010e+00  5.0013e-01  6.3031e+03  0:04:25  350

 absolute pressure limited to 5.000000e+10 in 118476 cells on zone 14550 

 turbulent viscosity limited to viscosity ratio of 1.000000e+05 in 104802 cells 
   151  2.2923e+11  2.4632e-02  5.6606e-02  6.0445e-02  2.9016e-02  9.9981e-01  4.9954e-01  5.8620e+03  0:04:24  349

 absolute pressure limited to 5.000000e+10 in 118428 cells on zone 14550 

 turbulent viscosity limited to viscosity ratio of 1.000000e+05 in 106027 cells 
   152  2.5027e+11  2.3966e-02  5.8310e-02  6.0140e-02  2.7303e-02  9.9949e-01  4.9903e-01  4.9843e+03  0:04:22  348

 absolute pressure limited to 5.000000e+10 in 118394 cells on zone 14550 

 turbulent viscosity limited to viscosity ratio of 1.000000e+05 in 104813 cells 
   153  2.5187e+11  1.9792e-02  5.7659e-02  5.8678e-02  2.9887e-02  1.0010e+00  4.9862e-01  4.8029e+03  0:04:21  347

 absolute pressure limited to 5.000000e+10 in 118432 cells on zone 14550 

 turbulent viscosity limited to viscosity ratio of 1.000000e+05 in 106053 cells 
   154  2.7005e+11  2.1781e-02  5.6034e-02  5.9988e-02  2.8468e-02  1.0014e+00  4.9948e-01  4.0970e+03  0:04:20  346

 absolute pressure limited to 5.000000e+10 in 118426 cells on zone 14550 

 turbulent viscosity limited to viscosity ratio of 1.000000e+05 in 105641 cells 

  iter  continuity  x-velocity  y-velocity  z-velocity      energy           k       omega  report-def     time/iter
   155  3.0089e+11  2.2080e-02  5.8573e-02  5.8494e-02  2.7443e-02  1.0005e+00  4.9947e-01  4.3765e+03  0:04:19  345

 absolute pressure limited to 5.000000e+10 in 118383 cells on zone 14550 

 turbulent viscosity limited to viscosity ratio of 1.000000e+05 in 105935 cells 
   156  3.1659e+11  1.7471e-02  5.6871e-02  5.6877e-02  2.8930e-02  1.0002e+00  4.9907e-01  3.9067e+03  0:04:18  344

 absolute pressure limited to 5.000000e+10 in 118408 cells on zone 14550 

 turbulent viscosity limited to viscosity ratio of 1.000000e+05 in 105537 cells 
   157  3.2746e+11  1.7729e-02  5.4462e-02  5.6356e-02  2.9014e-02  1.0008e+00  4.9927e-01  3.5981e+03  0:04:17  343

 absolute pressure limited to 5.000000e+10 in 118391 cells on zone 14550 

 turbulent viscosity limited to viscosity ratio of 1.000000e+05 in 106061 cells 
   158  3.6071e+11  1.8090e-02  5.3439e-02  5.6337e-02  2.7222e-02  9.9951e-01  4.9855e-01  2.7578e+03  0:04:17  342

 absolute pressure limited to 5.000000e+10 in 118420 cells on zone 14550 

 turbulent viscosity limited to viscosity ratio of 1.000000e+05 in 105995 cells 
   159  3.9572e+11  1.6526e-02  5.3535e-02  5.5104e-02  2.6486e-02  9.9961e-01  4.9824e-01  2.7941e+03  0:04:17  341

 absolute pressure limited to 5.000000e+10 in 118416 cells on zone 14550 

 turbulent viscosity limited to viscosity ratio of 1.000000e+05 in 106132 cells 
   160  4.0675e+11  1.5020e-02  5.2068e-02  5.2416e-02  2.6474e-02  9.9945e-01  4.9861e-01  2.0193e+03  0:04:16  340

 absolute pressure limited to 5.000000e+10 in 118426 cells on zone 14550 

 turbulent viscosity limited to viscosity ratio of 1.000000e+05 in 106129 cells 
   161  4.3972e+11  1.5112e-02  5.2353e-02  5.4461e-02  2.7593e-02  9.9952e-01  4.9850e-01  2.1680e+03  0:04:15  339

 absolute pressure limited to 5.000000e+10 in 118455 cells on zone 14550 

 turbulent viscosity limited to viscosity ratio of 1.000000e+05 in 105680 cells 
   162  4.8254e+11  1.3858e-02  5.3293e-02  5.3955e-02  4.1916e-02  9.9937e-01  4.9838e-01  1.9033e+03  0:04:09  338

 absolute pressure limited to 5.000000e+10 in 118596 cells on zone 14550 

 turbulent viscosity limited to viscosity ratio of 1.000000e+05 in 106413 cells 
   163  6.3282e+11  1.4642e-02  5.2815e-02  5.1287e-02  3.2055e-02  9.9904e-01  4.9859e-01  1.7083e+03  0:04:04  337

 absolute pressure limited to 5.000000e+10 in 118607 cells on zone 14550 

 turbulent viscosity limited to viscosity ratio of 1.000000e+05 in 106887 cells 
   164  7.8403e+11  1.0528e-02  5.5079e-02  5.0867e-02  2.6061e-02  9.9645e-01  4.9669e-01  1.8108e+03  0:04:00  336

 absolute pressure limited to 5.000000e+10 in 118616 cells on zone 14550 

 turbulent viscosity limited to viscosity ratio of 1.000000e+05 in 107028 cells 
   165  8.3634e+11  1.0443e-02  5.3149e-02  5.0550e-02  2.0593e-02  9.8916e-01  4.9351e-01  2.1747e+03  0:03:56  335

 absolute pressure limited to 5.000000e+10 in 118627 cells on zone 14550 

 turbulent viscosity limited to viscosity ratio of 1.000000e+05 in 107450 cells 

  iter  continuity  x-velocity  y-velocity  z-velocity      energy           k       omega  report-def     time/iter
   166  8.6880e+11  1.1824e-02  5.0616e-02  4.9451e-02  1.7036e-02  9.6786e-01  4.8691e-01  2.4827e+03  0:03:53  334

 absolute pressure limited to 5.000000e+10 in 118602 cells on zone 14550 

 turbulent viscosity limited to viscosity ratio of 1.000000e+05 in 107427 cells 
   167  8.6456e+11  1.1116e-02  4.8073e-02  4.8860e-02  1.5291e-02  9.9273e-01  4.9345e-01  2.6153e+03  0:03:50  333

 absolute pressure limited to 5.000000e+10 in 118603 cells on zone 14550 

 turbulent viscosity limited to viscosity ratio of 1.000000e+05 in 107696 cells 
   168  8.5580e+11  9.8607e-03  4.7007e-02  4.7123e-02  1.6123e-02  9.8007e-01  4.8874e-01  3.2136e+03  0:03:48  332

 absolute pressure limited to 5.000000e+10 in 118580 cells on zone 14550 

 turbulent viscosity limited to viscosity ratio of 1.000000e+05 in 107883 cells 
   169  8.3706e+11  9.2804e-03  4.7890e-02  4.8471e-02  1.7577e-02  9.8210e-01  4.8805e-01  3.6034e+03  0:03:47  331

 absolute pressure limited to 5.000000e+10 in 118593 cells on zone 14550 

 turbulent viscosity limited to viscosity ratio of 1.000000e+05 in 108156 cells 
   170  8.5073e+11  8.0363e-03  5.1913e-02  5.0616e-02  1.9385e-02  9.9262e-01  4.9318e-01  3.8457e+03  0:03:45  330

 absolute pressure limited to 5.000000e+10 in 118598 cells on zone 14550 

 turbulent viscosity limited to viscosity ratio of 1.000000e+05 in 108211 cells 
   171  9.5186e+11  8.0383e-03  5.5606e-02  5.1879e-02  1.8627e-02  9.8588e-01  4.8959e-01  4.0171e+03  0:03:44  329

 absolute pressure limited to 5.000000e+10 in 118608 cells on zone 14550 

 turbulent viscosity limited to viscosity ratio of 1.000000e+05 in 108618 cells 
   172  9.9263e+11  7.5079e-03  5.5157e-02  5.2249e-02  1.8285e-02  9.9616e-01  4.9594e-01  3.6998e+03  0:03:42  328

 absolute pressure limited to 5.000000e+10 in 118605 cells on zone 14550 

 turbulent viscosity limited to viscosity ratio of 1.000000e+05 in 108513 cells 
   173  9.8825e+11  6.9331e-03  5.2449e-02  5.2749e-02  1.7007e-02  9.9784e-01  4.9779e-01  4.0491e+03  0:03:41  327

 absolute pressure limited to 5.000000e+10 in 118609 cells on zone 14550 

 turbulent viscosity limited to viscosity ratio of 1.000000e+05 in 108823 cells 
   174  1.0209e+12  8.0176e-03  5.1012e-02  5.2513e-02  1.7197e-02  9.9520e-01  4.9653e-01  4.2839e+03  0:03:40  326

 absolute pressure limited to 5.000000e+10 in 118596 cells on zone 14550 

 turbulent viscosity limited to viscosity ratio of 1.000000e+05 in 108741 cells 
   175  1.0297e+12  7.2078e-03  5.0784e-02  5.1312e-02  1.6704e-02  9.9137e-01  4.9454e-01  4.7593e+03  0:03:39  325

 absolute pressure limited to 5.000000e+10 in 118592 cells on zone 14550 

 turbulent viscosity limited to viscosity ratio of 1.000000e+05 in 108986 cells 
   176  1.0211e+12  7.2799e-03  5.1477e-02  5.1280e-02  1.7443e-02  9.8422e-01  4.9132e-01  5.2743e+03  0:03:38  324

 absolute pressure limited to 5.000000e+10 in 118586 cells on zone 14550 

 turbulent viscosity limited to viscosity ratio of 1.000000e+05 in 108797 cells 

  iter  continuity  x-velocity  y-velocity  z-velocity      energy           k       omega  report-def     time/iter
   177  1.0230e+12  7.3393e-03  5.2817e-02  5.0989e-02  1.8366e-02  9.9050e-01  4.9215e-01  5.9629e+03  0:03:37  323

 absolute pressure limited to 5.000000e+10 in 118583 cells on zone 14550 

 turbulent viscosity limited to viscosity ratio of 1.000000e+05 in 109246 cells 
   178  1.0444e+12  7.4506e-03  5.3861e-02  5.0591e-02  1.9327e-02  9.9943e-01  4.9932e-01  5.8273e+03  0:03:36  322

 absolute pressure limited to 5.000000e+10 in 118583 cells on zone 14550 

 turbulent viscosity limited to viscosity ratio of 1.000000e+05 in 109140 cells 
   179  1.0710e+12  6.9916e-03  5.4178e-02  5.0995e-02  1.8789e-02  9.9820e-01  4.9873e-01  6.1198e+03  0:03:35  321

 absolute pressure limited to 5.000000e+10 in 118585 cells on zone 14550 

 turbulent viscosity limited to viscosity ratio of 1.000000e+05 in 109665 cells 
   180  1.1070e+12  7.3084e-03  5.2633e-02  5.1863e-02  1.8437e-02  9.9544e-01  4.9739e-01  6.3731e+03  0:03:35  320

 absolute pressure limited to 5.000000e+10 in 118592 cells on zone 14550 

 turbulent viscosity limited to viscosity ratio of 1.000000e+05 in 109506 cells 
   181  1.1454e+12  6.7510e-03  5.1359e-02  5.1505e-02  1.7633e-02  9.9376e-01  4.9610e-01  7.0022e+03  0:03:34  319

 absolute pressure limited to 5.000000e+10 in 118591 cells on zone 14550 

 turbulent viscosity limited to viscosity ratio of 1.000000e+05 in 109767 cells 
   182  1.1472e+12  6.7050e-03  5.0584e-02  5.0847e-02  1.7652e-02  9.9432e-01  4.9584e-01  7.4890e+03  0:03:34  318

 absolute pressure limited to 5.000000e+10 in 118593 cells on zone 14550 

 turbulent viscosity limited to viscosity ratio of 1.000000e+05 in 109672 cells 
   183  1.1604e+12  6.5162e-03  5.1137e-02  4.9788e-02  1.7515e-02  9.7773e-01  4.9107e-01  8.1501e+03  0:03:33  317

 absolute pressure limited to 5.000000e+10 in 118591 cells on zone 14550 

 turbulent viscosity limited to viscosity ratio of 1.000000e+05 in 109857 cells 
   184  1.1761e+12  6.4909e-03  4.9551e-02  4.9082e-02  1.8661e-02  9.8963e-01  4.9148e-01  8.3736e+03  0:03:32  316

 absolute pressure limited to 5.000000e+10 in 118600 cells on zone 14550 

 turbulent viscosity limited to viscosity ratio of 1.000000e+05 in 109945 cells 
   185  1.1754e+12  6.1241e-03  5.0384e-02  4.8494e-02  1.7930e-02  9.8631e-01  4.8983e-01  7.9845e+03  0:03:31  315

 absolute pressure limited to 5.000000e+10 in 118574 cells on zone 14550 

 turbulent viscosity limited to viscosity ratio of 1.000000e+05 in 110990 cells 
   186  1.1820e+12  6.3040e-03  4.9187e-02  5.0327e-02  1.7900e-02  9.9453e-01  4.9358e-01  6.6549e+03  0:03:30  314

 absolute pressure limited to 5.000000e+10 in 118602 cells on zone 14550 

 turbulent viscosity limited to viscosity ratio of 1.000000e+05 in 111905 cells 
   187  1.1915e+12  6.6441e-03  4.9132e-02  4.9621e-02  1.7773e-02  9.9100e-01  4.9210e-01  7.5545e+03  0:03:29  313

 absolute pressure limited to 5.000000e+10 in 118571 cells on zone 14550 

 turbulent viscosity limited to viscosity ratio of 1.000000e+05 in 112362 cells 

  iter  continuity  x-velocity  y-velocity  z-velocity      energy           k       omega  report-def     time/iter
   188  1.1768e+12  6.4730e-03  4.9165e-02  4.8849e-02  1.8480e-02  9.9581e-01  4.9558e-01  7.4804e+03  0:03:28  312

 absolute pressure limited to 5.000000e+10 in 118591 cells on zone 14550 

 turbulent viscosity limited to viscosity ratio of 1.000000e+05 in 112439 cells 
   189  1.1901e+12  6.9241e-03  5.0454e-02  4.9964e-02  1.8423e-02  9.9651e-01  4.9678e-01  8.1118e+03  0:03:28  311

 absolute pressure limited to 5.000000e+10 in 118585 cells on zone 14550 

 turbulent viscosity limited to viscosity ratio of 1.000000e+05 in 112124 cells 
   190  1.2200e+12  6.6191e-03  5.0505e-02  4.9969e-02  1.8457e-02  9.8705e-01  4.9304e-01  6.1989e+03  0:03:27  310

 absolute pressure limited to 5.000000e+10 in 118581 cells on zone 14550 

 turbulent viscosity limited to viscosity ratio of 1.000000e+05 in 112498 cells 
   191  1.2177e+12  6.2769e-03  5.0425e-02  4.9890e-02  1.7904e-02  9.9472e-01  4.9508e-01  6.1792e+03  0:03:26  309

 absolute pressure limited to 5.000000e+10 in 118586 cells on zone 14550 

 turbulent viscosity limited to viscosity ratio of 1.000000e+05 in 112912 cells 
   192  1.2444e+12  5.9617e-03  5.0233e-02  4.9494e-02  1.7852e-02  9.7808e-01  4.8891e-01  5.7748e+03  0:03:26  308

 absolute pressure limited to 5.000000e+10 in 118572 cells on zone 14550 

 turbulent viscosity limited to viscosity ratio of 1.000000e+05 in 113348 cells 
   193  1.2386e+12  6.3248e-03  4.8898e-02  4.8875e-02  1.9288e-02  9.5316e-01  4.8077e-01  6.8863e+03  0:03:25  307

 absolute pressure limited to 5.000000e+10 in 118587 cells on zone 14550 

 turbulent viscosity limited to viscosity ratio of 1.000000e+05 in 113320 cells 
   194  1.2395e+12  6.4694e-03  4.9822e-02  4.9187e-02  2.1230e-02  9.9392e-01  4.9314e-01  6.2851e+03  0:03:24  306

 absolute pressure limited to 5.000000e+10 in 118582 cells on zone 14550 

 turbulent viscosity limited to viscosity ratio of 1.000000e+05 in 113418 cells 
   195  1.2816e+12  6.1079e-03  5.1129e-02  4.9572e-02  2.0566e-02  9.9637e-01  4.9634e-01  6.7195e+03  0:03:23  305

 absolute pressure limited to 5.000000e+10 in 118587 cells on zone 14550 

 turbulent viscosity limited to viscosity ratio of 1.000000e+05 in 113210 cells 
   196  1.3131e+12  5.6804e-03  5.0930e-02  5.0638e-02  1.9555e-02  9.8570e-01  4.9254e-01  6.9669e+03  0:03:22  304

 absolute pressure limited to 5.000000e+10 in 118592 cells on zone 14550 

 turbulent viscosity limited to viscosity ratio of 1.000000e+05 in 113292 cells 
   197  1.3375e+12  5.7230e-03  5.1481e-02  5.0775e-02  1.8903e-02  9.7469e-01  4.8722e-01  7.1691e+03  0:03:21  303
 temperature limited to 5.000000e+03 in 17 cells on zone 14550 in domain 1
 
 absolute pressure limited to 5.000000e+10 in 118594 cells on zone 14550 

 turbulent viscosity limited to viscosity ratio of 1.000000e+05 in 112878 cells 
   198  1.3621e+12  5.6598e-03  5.1589e-02  5.0604e-02  1.7153e-02  9.8898e-01  4.8954e-01  7.5200e+03  0:03:20  302
 temperature limited to 5.000000e+03 in 23 cells on zone 14550 in domain 1
 
 absolute pressure limited to 5.000000e+10 in 118572 cells on zone 14550 

 turbulent viscosity limited to viscosity ratio of 1.000000e+05 in 113222 cells 

  iter  continuity  x-velocity  y-velocity  z-velocity      energy           k       omega  report-def     time/iter
   199  1.3603e+12  5.6993e-03  5.0397e-02  4.8776e-02  1.6746e-02  9.5692e-01  4.7676e-01  7.5954e+03  0:03:20  301
 temperature limited to 5.000000e+03 in 137 cells on zone 14550 in domain 1
  temperature limited to 5.000000e+03 on 1 faces

 absolute pressure limited to 5.000000e+10 in 118590 cells on zone 14550 

 turbulent viscosity limited to viscosity ratio of 1.000000e+05 in 112772 cells 
   200  1.3880e+12  5.8565e-03  4.9136e-02  4.6798e-02  1.6457e-02  9.9861e-01  4.9807e-01  7.2362e+03  0:03:19  300
 temperature limited to 5.000000e+03 in 248 cells on zone 14550 in domain 1
  temperature limited to 5.000000e+03 on 4 faces

 absolute pressure limited to 5.000000e+10 in 118586 cells on zone 14550 

 turbulent viscosity limited to viscosity ratio of 1.000000e+05 in 112846 cells 
   201  1.3811e+12  5.6636e-03  4.8646e-02  4.6114e-02  1.7195e-02  9.9781e-01  4.9793e-01  7.1477e+03  0:03:18  299
 temperature limited to 5.000000e+03 in 322 cells on zone 14550 in domain 1
  temperature limited to 5.000000e+03 on 14 faces

 absolute pressure limited to 5.000000e+10 in 118579 cells on zone 14550 

 turbulent viscosity limited to viscosity ratio of 1.000000e+05 in 112776 cells 
   202  1.3494e+12  5.6079e-03  4.9249e-02  4.7132e-02  1.7347e-02  9.8946e-01  4.9539e-01  6.5076e+03  0:03:19  298
 temperature limited to 5.000000e+03 in 8 cells on zone 14550 in domain 1
  temperature limited to 5.000000e+03 on 10 faces

 absolute pressure limited to 5.000000e+10 in 118585 cells on zone 14550 

 turbulent viscosity limited to viscosity ratio of 1.000000e+05 in 113318 cells 
   203  1.3856e+12  6.0717e-03  5.0277e-02  4.8449e-02  1.9374e-02  9.8753e-01  4.9337e-01  6.3003e+03  0:03:18  297
 temperature limited to 5.000000e+03 in 295 cells on zone 14550 in domain 1
  temperature limited to 5.000000e+03 on 7 faces

 absolute pressure limited to 5.000000e+10 in 118578 cells on zone 14550 

 turbulent viscosity limited to viscosity ratio of 1.000000e+05 in 112930 cells 
   204  1.4127e+12  5.8710e-03  5.2225e-02  5.0831e-02  1.8976e-02  9.8576e-01  4.9120e-01  5.7582e+03  0:03:17  296
 temperature limited to 5.000000e+03 in 359 cells on zone 14550 in domain 1
  temperature limited to 5.000000e+03 on 5 faces

 absolute pressure limited to 5.000000e+10 in 118588 cells on zone 14550 

 turbulent viscosity limited to viscosity ratio of 1.000000e+05 in 113277 cells 
   205  1.4478e+12  6.0696e-03  5.3433e-02  5.0941e-02  1.9148e-02  9.9838e-01  4.9819e-01  6.7210e+03  0:03:16  295
 temperature limited to 5.000000e+03 in 1035 cells on zone 14550 in domain 1
  temperature limited to 5.000000e+03 on 5 faces

 absolute pressure limited to 5.000000e+10 in 118589 cells on zone 14550 

 turbulent viscosity limited to viscosity ratio of 1.000000e+05 in 112861 cells 
   206  1.5246e+12  5.3377e-03  5.2575e-02  5.1450e-02  2.0129e-02  9.9192e-01  4.9567e-01  6.1974e+03  0:03:15  294
 temperature limited to 5.000000e+03 in 314 cells on zone 14550 in domain 1
  temperature limited to 5.000000e+03 on 12 faces

 absolute pressure limited to 5.000000e+10 in 118602 cells on zone 14550 

 turbulent viscosity limited to viscosity ratio of 1.000000e+05 in 113250 cells 
   207  1.5680e+12  6.1141e-03  5.1679e-02  5.0190e-02  1.9378e-02  9.9453e-01  4.9544e-01  7.4451e+03  0:03:15  293
 temperature limited to 5.000000e+03 in 116 cells on zone 14550 in domain 1
  temperature limited to 5.000000e+03 on 20 faces

 absolute pressure limited to 5.000000e+10 in 118580 cells on zone 14550 

 turbulent viscosity limited to viscosity ratio of 1.000000e+05 in 113050 cells 
   208  1.5649e+12  5.0165e-03  5.0222e-02  5.1340e-02  2.0186e-02  9.8912e-01  4.9297e-01  8.0611e+03  0:03:14  292
 temperature limited to 5.000000e+03 in 176 cells on zone 14550 in domain 1
  temperature limited to 5.000000e+03 on 26 faces

 absolute pressure limited to 5.000000e+10 in 118590 cells on zone 14550 

 turbulent viscosity limited to viscosity ratio of 1.000000e+05 in 113203 cells 
   209  1.5989e+12  5.8368e-03  5.1105e-02  5.2268e-02  2.0621e-02  9.9434e-01  4.9503e-01  9.2259e+03  0:03:13  291
 temperature limited to 5.000000e+03 in 500 cells on zone 14550 in domain 1
  temperature limited to 5.000000e+03 on 40 faces

 absolute pressure limited to 5.000000e+10 in 118588 cells on zone 14550 

 turbulent viscosity limited to viscosity ratio of 1.000000e+05 in 112731 cells 

  iter  continuity  x-velocity  y-velocity  z-velocity      energy           k       omega  report-def     time/iter
   210  1.7104e+12  5.5123e-03  5.1759e-02  5.1429e-02  2.1638e-02  9.9867e-01  4.9876e-01  9.3112e+03  0:03:13  290
 temperature limited to 1.000000e+00 in 1 cells on zone 14550 in domain 1
  temperature limited to 5.000000e+03 in 184 cells on zone 14550 in domain 1
  temperature limited to 5.000000e+03 on 25 faces

 absolute pressure limited to 5.000000e+10 in 118585 cells on zone 14550 

 turbulent viscosity limited to viscosity ratio of 1.000000e+05 in 113173 cells 
   211  1.7457e+12  5.0716e-03  5.3969e-02  5.0804e-02  2.2442e-02  9.9404e-01  4.9722e-01  8.7365e+03  0:03:12  289
 temperature limited to 1.000000e+00 in 1 cells on zone 14550 in domain 1
  temperature limited to 5.000000e+03 in 391 cells on zone 14550 in domain 1
  temperature limited to 5.000000e+03 on 6 faces

 absolute pressure limited to 5.000000e+10 in 118582 cells on zone 14550 

 turbulent viscosity limited to viscosity ratio of 1.000000e+05 in 112754 cells 
   212  1.7738e+12  4.3206e-03  5.4698e-02  5.0372e-02  2.1794e-02  9.9588e-01  4.9690e-01  8.4336e+03  0:03:12  288
 temperature limited to 1.000000e+00 in 6 cells on zone 14550 in domain 1
  temperature limited to 5.000000e+03 in 331 cells on zone 14550 in domain 1
  temperature limited to 5.000000e+03 on 6 faces

 absolute pressure limited to 5.000000e+10 in 118605 cells on zone 14550 

 turbulent viscosity limited to viscosity ratio of 1.000000e+05 in 113196 cells 
   213  1.8749e+12  5.0661e-03  5.3657e-02  5.0236e-02  2.1056e-02  9.9684e-01  4.9713e-01  7.6329e+03  0:03:11  287
 temperature limited to 1.000000e+00 in 14 cells on zone 14550 in domain 1
  temperature limited to 5.000000e+03 in 21 cells on zone 14550 in domain 1
  temperature limited to 5.000000e+03 on 7 faces

 absolute pressure limited to 5.000000e+10 in 118596 cells on zone 14550 

 turbulent viscosity limited to viscosity ratio of 1.000000e+05 in 112888 cells 
   214  1.9956e+12  4.3251e-03  5.2473e-02  5.0490e-02  1.9441e-02  9.8920e-01  4.9405e-01  7.4832e+03  0:03:10  286
 temperature limited to 1.000000e+00 in 21 cells on zone 14550 in domain 1
  temperature limited to 5.000000e+03 in 13 cells on zone 14550 in domain 1
  temperature limited to 5.000000e+03 on 5 faces

 absolute pressure limited to 5.000000e+10 in 118567 cells on zone 14550 

 turbulent viscosity limited to viscosity ratio of 1.000000e+05 in 113131 cells 
   215  1.9598e+12  4.5145e-03  5.0060e-02  4.9467e-02  1.9261e-02  9.9343e-01  4.9454e-01  5.6417e+03  0:03:09  285
 temperature limited to 1.000000e+00 in 32 cells on zone 14550 in domain 1
  temperature limited to 5.000000e+03 in 21 cells on zone 14550 in domain 1
  temperature limited to 5.000000e+03 on 4 faces

 absolute pressure limited to 5.000000e+10 in 118596 cells on zone 14550 

 turbulent viscosity limited to viscosity ratio of 1.000000e+05 in 112727 cells 
   216  2.0852e+12  4.8661e-03  4.9867e-02  4.8953e-02  2.1938e-02  9.9530e-01  4.9552e-01  5.3007e+03  0:03:08  284
 temperature limited to 1.000000e+00 in 60 cells on zone 14550 in domain 1
  temperature limited to 5.000000e+03 in 12 cells on zone 14550 in domain 1
  temperature limited to 5.000000e+03 on 4 faces

 absolute pressure limited to 5.000000e+10 in 118581 cells on zone 14550 

 turbulent viscosity limited to viscosity ratio of 1.000000e+05 in 113198 cells 
   217  2.2571e+12  5.1695e-03  4.9556e-02  4.9384e-02  2.0586e-02  9.9814e-01  4.9805e-01  3.3370e+03  0:03:08  283
 temperature limited to 1.000000e+00 in 136 cells on zone 14550 in domain 1
  temperature limited to 5.000000e+03 in 93 cells on zone 14550 in domain 1
  temperature limited to 5.000000e+03 on 4 faces

 absolute pressure limited to 5.000000e+10 in 118583 cells on zone 14550 

 turbulent viscosity limited to viscosity ratio of 1.000000e+05 in 113148 cells 
   218  2.2729e+12  3.6628e-03  5.0318e-02  4.8641e-02  2.0598e-02  9.9643e-01  4.9719e-01  3.6801e+03  0:03:07  282
 temperature limited to 1.000000e+00 in 340 cells on zone 14550 in domain 1
  temperature limited to 5.000000e+03 in 3 cells on zone 14550 in domain 1
  temperature limited to 5.000000e+03 on 4 faces

 absolute pressure limited to 5.000000e+10 in 118579 cells on zone 14550 

 turbulent viscosity limited to viscosity ratio of 1.000000e+05 in 113477 cells 
   219  2.4258e+12  4.1847e-03  5.0445e-02  4.9383e-02  2.0980e-02  9.8866e-01  4.9418e-01  1.7979e+03  0:03:07  281
 temperature limited to 1.000000e+00 in 513 cells on zone 14550 in domain 1
  temperature limited to 5.000000e+03 in 46 cells on zone 14550 in domain 1
  temperature limited to 5.000000e+03 on 4 faces

 absolute pressure limited to 5.000000e+10 in 118590 cells on zone 14550 

 turbulent viscosity limited to viscosity ratio of 1.000000e+05 in 113285 cells 
   220  2.5867e+12  3.9584e-03  5.0683e-02  4.9031e-02  2.2216e-02  9.9329e-01  4.9428e-01  2.1361e+03  0:03:06  280
 temperature limited to 1.000000e+00 in 618 cells on zone 14550 in domain 1
  temperature limited to 5.000000e+03 in 3 cells on zone 14550 in domain 1
  temperature limited to 5.000000e+03 on 2 faces

 absolute pressure limited to 5.000000e+10 in 118584 cells on zone 14550 

 turbulent viscosity limited to viscosity ratio of 1.000000e+05 in 113579 cells 

  iter  continuity  x-velocity  y-velocity  z-velocity      energy           k       omega  report-def     time/iter
   221  2.7087e+12  3.9335e-03  5.2030e-02  4.7817e-02  2.1549e-02  9.9792e-01  4.9790e-01  1.9436e+03  0:03:05  279
 temperature limited to 1.000000e+00 in 241 cells on zone 14550 in domain 1
  temperature limited to 5.000000e+03 in 31 cells on zone 14550 in domain 1
 
 absolute pressure limited to 5.000000e+10 in 118581 cells on zone 14550 

 turbulent viscosity limited to viscosity ratio of 1.000000e+05 in 113278 cells 
   222  2.9524e+12  3.8897e-03  5.1985e-02  4.7946e-02  2.0906e-02  9.9838e-01  4.9833e-01  2.6796e+03  0:03:05  278
 temperature limited to 5.000000e+03 in 373 cells on zone 14550 in domain 1
 
 absolute pressure limited to 5.000000e+10 in 118589 cells on zone 14550 

 turbulent viscosity limited to viscosity ratio of 1.000000e+05 in 113426 cells 
   223  3.1106e+12  3.8719e-03  4.9968e-02  4.6862e-02  2.2090e-02  9.9865e-01  4.9862e-01  1.6670e+03  0:03:04  277
 temperature limited to 1.000000e+00 in 243 cells on zone 14550 in domain 1
  temperature limited to 5.000000e+03 in 86 cells on zone 14550 in domain 1
 
 absolute pressure limited to 5.000000e+10 in 118573 cells on zone 14550 

 turbulent viscosity limited to viscosity ratio of 1.000000e+05 in 113108 cells 
   224  3.2641e+12  3.3672e-03  4.9945e-02  4.7286e-02  2.2275e-02  9.9797e-01  4.9822e-01  3.7634e+03  0:03:04  276
 temperature limited to 1.000000e+00 in 98 cells on zone 14550 in domain 1
  temperature limited to 5.000000e+03 in 329 cells on zone 14550 in domain 1
  temperature limited to 5.000000e+03 on 6 faces

 absolute pressure limited to 5.000000e+10 in 118584 cells on zone 14550 

 turbulent viscosity limited to viscosity ratio of 1.000000e+05 in 113045 cells 
   225  3.5629e+12  3.3202e-03  5.0246e-02  4.6839e-02  2.1413e-02  9.9168e-01  4.9591e-01  2.7485e+03  0:03:03  275
 temperature limited to 1.000000e+00 in 263 cells on zone 14550 in domain 1
  temperature limited to 5.000000e+03 in 531 cells on zone 14550 in domain 1
  temperature limited to 5.000000e+03 on 22 faces

 absolute pressure limited to 5.000000e+10 in 118581 cells on zone 14550 

 turbulent viscosity limited to viscosity ratio of 1.000000e+05 in 112477 cells 
   226  3.8953e+12  3.0755e-03  5.1162e-02  4.5235e-02  2.2271e-02  9.9759e-01  4.9755e-01  3.6877e+03  0:03:02  274
 temperature limited to 1.000000e+00 in 704 cells on zone 14550 in domain 1
  temperature limited to 5.000000e+03 in 673 cells on zone 14550 in domain 1
  temperature limited to 5.000000e+03 on 41 faces

 absolute pressure limited to 5.000000e+10 in 118572 cells on zone 14550 

 turbulent viscosity limited to viscosity ratio of 1.000000e+05 in 113098 cells 
   227  4.0727e+12  2.9081e-03  5.1683e-02  4.5605e-02  2.2521e-02  9.9473e-01  4.9597e-01  6.1652e+02  0:03:01  273
 temperature limited to 5.000000e+03 in 1245 cells on zone 14550 in domain 1
  temperature limited to 5.000000e+03 on 62 faces

 absolute pressure limited to 5.000000e+10 in 118586 cells on zone 14550 

 turbulent viscosity limited to viscosity ratio of 1.000000e+05 in 112493 cells 
   228  4.3227e+12  2.7503e-03  5.2173e-02  4.5306e-02  2.1545e-02  9.8496e-01  4.9197e-01  1.5929e+03  0:03:01  272
 temperature limited to 1.000000e+00 in 711 cells on zone 14550 in domain 1
  temperature limited to 5.000000e+03 in 1 cells on zone 14550 in domain 1
  temperature limited to 5.000000e+03 on 39 faces

 absolute pressure limited to 5.000000e+10 in 118569 cells on zone 14550 

 turbulent viscosity limited to viscosity ratio of 1.000000e+05 in 113328 cells 
   229  4.5387e+12  2.9082e-03  5.0895e-02  4.3742e-02  2.2959e-02  9.7814e-01  4.8730e-01 -3.3208e+03  0:03:00  271
 temperature limited to 1.000000e+00 in 2 cells on zone 14550 in domain 1
  temperature limited to 5.000000e+03 in 60 cells on zone 14550 in domain 1
 
 absolute pressure limited to 5.000000e+10 in 118581 cells on zone 14550 

 turbulent viscosity limited to viscosity ratio of 1.000000e+05 in 112666 cells 
   230  4.6630e+12  2.4962e-03  5.1312e-02  4.4530e-02  2.2375e-02  9.9925e-01  4.9912e-01 -2.5698e+03  0:02:59  270
 temperature limited to 1.000000e+00 in 721 cells on zone 14550 in domain 1
  temperature limited to 5.000000e+03 in 99 cells on zone 14550 in domain 1
 
 absolute pressure limited to 5.000000e+10 in 118588 cells on zone 14550 

 turbulent viscosity limited to viscosity ratio of 1.000000e+05 in 113121 cells 
   231  4.9458e+12  3.0417e-03  5.0920e-02  4.3965e-02  2.3503e-02  9.9640e-01  4.9810e-01 -4.8913e+03  0:02:58  269
 temperature limited to 1.000000e+00 in 912 cells on zone 14550 in domain 1
  temperature limited to 5.000000e+03 in 221 cells on zone 14550 in domain 1
 
 absolute pressure limited to 5.000000e+10 in 118569 cells on zone 14550 

 turbulent viscosity limited to viscosity ratio of 1.000000e+05 in 112409 cells 

  iter  continuity  x-velocity  y-velocity  z-velocity      energy           k       omega  report-def     time/iter
   232  5.0989e+12  2.9218e-03  5.0645e-02  4.5172e-02  2.4065e-02  9.9460e-01  4.9676e-01 -3.9082e+03  0:02:57  268
 temperature limited to 1.000000e+00 in 1017 cells on zone 14550 in domain 1
  temperature limited to 5.000000e+03 in 284 cells on zone 14550 in domain 1
 
 absolute pressure limited to 5.000000e+10 in 118561 cells on zone 14550 

 turbulent viscosity limited to viscosity ratio of 1.000000e+05 in 113171 cells 
   233  5.2506e+12  3.1716e-03  5.0997e-02  4.5392e-02  2.5331e-02  9.8917e-01  4.9480e-01 -5.7354e+03  0:02:56  267
 temperature limited to 1.000000e+00 in 1088 cells on zone 14550 in domain 1
  temperature limited to 5.000000e+03 in 655 cells on zone 14550 in domain 1
 
 absolute pressure limited to 5.000000e+10 in 118566 cells on zone 14550 

 turbulent viscosity limited to viscosity ratio of 1.000000e+05 in 112653 cells 
   234  5.7063e+12  3.2987e-03  5.1599e-02  4.5231e-02  3.0108e-02  9.9491e-01  4.9585e-01 -5.3320e+03  0:02:56  266
 temperature limited to 1.000000e+00 in 1 cells on zone 14550 in domain 1
  temperature limited to 5.000000e+03 in 1254 cells on zone 14550 in domain 1
  temperature limited to 5.000000e+03 on 22 faces

 absolute pressure limited to 5.000000e+10 in 118567 cells on zone 14550 

 turbulent viscosity limited to viscosity ratio of 1.000000e+05 in 113142 cells 
   235  6.3566e+12  3.3547e-03  5.3604e-02  4.3684e-02  2.8473e-02  9.9573e-01  4.9637e-01 -6.9956e+03  0:02:55  265
 temperature limited to 1.000000e+00 in 1090 cells on zone 14550 in domain 1
  temperature limited to 5.000000e+03 in 223 cells on zone 14550 in domain 1
  temperature limited to 5.000000e+03 on 38 faces

 absolute pressure limited to 5.000000e+10 in 118548 cells on zone 14550 

 turbulent viscosity limited to viscosity ratio of 1.000000e+05 in 112793 cells 
   236  6.4229e+12  2.8476e-03  5.2105e-02  4.3328e-02  2.8160e-02  9.9882e-01  4.9873e-01 -4.2604e+03  0:02:54  264
 temperature limited to 1.000000e+00 in 3 cells on zone 14550 in domain 1
  temperature limited to 5.000000e+03 in 120 cells on zone 14550 in domain 1
  temperature limited to 5.000000e+03 on 17 faces

 absolute pressure limited to 5.000000e+10 in 118569 cells on zone 14550 

 turbulent viscosity limited to viscosity ratio of 1.000000e+05 in 113167 cells 
   237  6.7840e+12  3.3013e-03  4.9082e-02  4.3504e-02  2.7783e-02  9.9388e-01  4.9695e-01 -6.3809e+03  0:02:53  263
 temperature limited to 1.000000e+00 in 1097 cells on zone 14550 in domain 1
  temperature limited to 5.000000e+03 in 188 cells on zone 14550 in domain 1
 
 absolute pressure limited to 5.000000e+10 in 118554 cells on zone 14550 

 turbulent viscosity limited to viscosity ratio of 1.000000e+05 in 113030 cells 
   238  7.3369e+12  3.1585e-03  4.9105e-02  4.3053e-02  2.7351e-02  9.9471e-01  4.9620e-01 -3.4326e+03  0:02:53  262
 temperature limited to 1.000000e+00 in 550 cells on zone 14550 in domain 1
  temperature limited to 5.000000e+03 in 2 cells on zone 14550 in domain 1
 
 absolute pressure limited to 5.000000e+10 in 118568 cells on zone 14550 

 turbulent viscosity limited to viscosity ratio of 1.000000e+05 in 113167 cells 
   239  7.5534e+12  2.8068e-03  4.6362e-02  4.4258e-02  2.5046e-02  9.9774e-01  4.9767e-01 -4.6119e+03  0:02:52  261
 temperature limited to 1.000000e+00 in 1129 cells on zone 14550 in domain 1
 
 absolute pressure limited to 5.000000e+10 in 118551 cells on zone 14550 

 turbulent viscosity limited to viscosity ratio of 1.000000e+05 in 113099 cells 
   240  8.1020e+12  2.6264e-03  4.4560e-02  4.3606e-02  2.3685e-02  9.9853e-01  4.9818e-01 -1.6293e+03  0:02:51  260
 temperature limited to 1.000000e+00 in 1150 cells on zone 14550 in domain 1
 
 absolute pressure limited to 5.000000e+10 in 118543 cells on zone 14550 

 turbulent viscosity limited to viscosity ratio of 1.000000e+05 in 113172 cells 
   241  8.2805e+12  2.4920e-03  4.2989e-02  4.2979e-02  2.4918e-02  9.9337e-01  4.9600e-01 -3.0866e+03  0:02:51  259
 temperature limited to 1.000000e+00 in 1206 cells on zone 14550 in domain 1
 
 absolute pressure limited to 5.000000e+10 in 118558 cells on zone 14550 

 turbulent viscosity limited to viscosity ratio of 1.000000e+05 in 112992 cells 
   242  8.6745e+12  2.4883e-03  3.9339e-02  4.4171e-02  2.6601e-02  9.8720e-01  4.9281e-01 -1.8034e+02  0:02:50  258
 temperature limited to 1.000000e+00 in 1131 cells on zone 14550 in domain 1
 
 absolute pressure limited to 5.000000e+10 in 118525 cells on zone 14550 

 turbulent viscosity limited to viscosity ratio of 1.000000e+05 in 113048 cells 

  iter  continuity  x-velocity  y-velocity  z-velocity      energy           k       omega  report-def     time/iter
   243  8.9109e+12  2.5938e-03  3.9722e-02  4.3658e-02  2.5377e-02  9.8614e-01  4.9080e-01 -1.6856e+03  0:02:50  257
 temperature limited to 1.000000e+00 in 1255 cells on zone 14550 in domain 1
 
 absolute pressure limited to 5.000000e+10 in 118520 cells on zone 14550 

 turbulent viscosity limited to viscosity ratio of 1.000000e+05 in 112833 cells 
   244  8.4281e+12  2.6714e-03  4.0904e-02  4.3365e-02  2.4395e-02  9.9596e-01  4.9507e-01  2.7298e+02  0:02:49  256
 temperature limited to 1.000000e+00 in 7 cells on zone 14550 in domain 1
 
 absolute pressure limited to 5.000000e+10 in 118553 cells on zone 14550 

 turbulent viscosity limited to viscosity ratio of 1.000000e+05 in 112900 cells 
   245  8.9873e+12  2.7065e-03  4.0723e-02  4.2708e-02  2.5054e-02  9.8907e-01  4.9073e-01 -7.8980e+02  0:02:48  255
 temperature limited to 1.000000e+00 in 16 cells on zone 14550 in domain 1
 
 absolute pressure limited to 5.000000e+10 in 118521 cells on zone 14550 

 turbulent viscosity limited to viscosity ratio of 1.000000e+05 in 112795 cells 
   246  9.4523e+12  2.6886e-03  4.1275e-02  4.2467e-02  2.4956e-02  9.9898e-01  4.9858e-01  2.3113e+03  0:02:47  254
 temperature limited to 1.000000e+00 in 15 cells on zone 14550 in domain 1
 
 absolute pressure limited to 5.000000e+10 in 118539 cells on zone 14550 

 turbulent viscosity limited to viscosity ratio of 1.000000e+05 in 112920 cells 
   247  9.1924e+12  2.5142e-03  4.2104e-02  4.2458e-02  2.4322e-02  9.9599e-01  4.9720e-01  2.0871e+03  0:02:47  253
 temperature limited to 1.000000e+00 in 893 cells on zone 14550 in domain 1
 
 absolute pressure limited to 5.000000e+10 in 118545 cells on zone 14550 

 turbulent viscosity limited to viscosity ratio of 1.000000e+05 in 112767 cells 
   248  9.4330e+12  2.5359e-03  4.3540e-02  4.2796e-02  2.5541e-02  9.8856e-01  4.9481e-01  2.7463e+03  0:02:46  252
 temperature limited to 1.000000e+00 in 21 cells on zone 14550 in domain 1
 
 absolute pressure limited to 5.000000e+10 in 118541 cells on zone 14550 

 turbulent viscosity limited to viscosity ratio of 1.000000e+05 in 112999 cells 
   249  1.0011e+13  2.4982e-03  4.6027e-02  4.2043e-02  2.4877e-02  9.9964e-01  4.9979e-01  3.8019e+03  0:02:45  251
 temperature limited to 1.000000e+00 in 903 cells on zone 14550 in domain 1
 
 absolute pressure limited to 5.000000e+10 in 118526 cells on zone 14550 

 turbulent viscosity limited to viscosity ratio of 1.000000e+05 in 112797 cells 
   250  1.0190e+13  2.4600e-03  4.2585e-02  4.1684e-02  2.6210e-02  9.9851e-01  4.9950e-01  3.9357e+03  0:02:44  250
 temperature limited to 1.000000e+00 in 26 cells on zone 14550 in domain 1
 
 absolute pressure limited to 5.000000e+10 in 118547 cells on zone 14550 

 turbulent viscosity limited to viscosity ratio of 1.000000e+05 in 113234 cells 
   251  9.9739e+12  2.3654e-03  4.2061e-02  4.1279e-02  2.6653e-02  9.9716e-01  4.9891e-01  4.6576e+03  0:02:44  249
 temperature limited to 1.000000e+00 in 372 cells on zone 14550 in domain 1
 
 absolute pressure limited to 5.000000e+10 in 118546 cells on zone 14550 

 turbulent viscosity limited to viscosity ratio of 1.000000e+05 in 113034 cells 
   252  1.0100e+13  2.4174e-03  4.0916e-02  4.2039e-02  2.9355e-02  9.9616e-01  4.9802e-01  2.6639e+03  0:02:43  248
 temperature limited to 1.000000e+00 in 30 cells on zone 14550 in domain 1
 
 absolute pressure limited to 5.000000e+10 in 118553 cells on zone 14550 

 turbulent viscosity limited to viscosity ratio of 1.000000e+05 in 113216 cells 
   253  1.0685e+13  2.2750e-03  3.9903e-02  4.4136e-02  3.1885e-02  9.9560e-01  4.9744e-01  5.0106e+03  0:02:43  247
 temperature limited to 1.000000e+00 in 390 cells on zone 14550 in domain 1
 
 absolute pressure limited to 5.000000e+10 in 118528 cells on zone 14550 

 turbulent viscosity limited to viscosity ratio of 1.000000e+05 in 112938 cells 

  iter  continuity  x-velocity  y-velocity  z-velocity      energy           k       omega  report-def     time/iter
   254  1.0490e+13  2.1662e-03  3.8398e-02  4.5876e-02  2.8737e-02  9.8612e-01  4.9478e-01  4.3932e+03  0:02:42  246
 temperature limited to 1.000000e+00 in 429 cells on zone 14550 in domain 1
 
 absolute pressure limited to 5.000000e+10 in 118545 cells on zone 14550 

 turbulent viscosity limited to viscosity ratio of 1.000000e+05 in 113206 cells 
   255  1.0574e+13  2.2362e-03  3.7116e-02  4.6266e-02  3.1085e-02  9.9785e-01  4.9742e-01  6.3599e+03  0:02:42  245
 temperature limited to 1.000000e+00 in 996 cells on zone 14550 in domain 1
 
 absolute pressure limited to 5.000000e+10 in 118526 cells on zone 14550 

 turbulent viscosity limited to viscosity ratio of 1.000000e+05 in 112967 cells 
   256  1.1012e+13  2.3407e-03  3.7887e-02  4.5652e-02  2.7411e-02  9.9793e-01  4.9744e-01  5.5287e+03  0:02:41  244
 temperature limited to 1.000000e+00 in 1109 cells on zone 14550 in domain 1
 
 absolute pressure limited to 5.000000e+10 in 118507 cells on zone 14550 

 turbulent viscosity limited to viscosity ratio of 1.000000e+05 in 113264 cells 
   257  1.0822e+13  2.2525e-03  3.6762e-02  4.4388e-02  2.5673e-02  9.9223e-01  4.9421e-01  6.1671e+03  0:02:40  243
 temperature limited to 1.000000e+00 in 39 cells on zone 14550 in domain 1
 
 absolute pressure limited to 5.000000e+10 in 118541 cells on zone 14550 

 turbulent viscosity limited to viscosity ratio of 1.000000e+05 in 112962 cells 
   258  1.0323e+13  2.3329e-03  3.4698e-02  4.2466e-02  2.4433e-02  9.9740e-01  4.9671e-01  4.2990e+03  0:02:40  242
 temperature limited to 1.000000e+00 in 983 cells on zone 14550 in domain 1
 
 absolute pressure limited to 5.000000e+10 in 118543 cells on zone 14550 

 turbulent viscosity limited to viscosity ratio of 1.000000e+05 in 113202 cells 
   259  1.0722e+13  2.5260e-03  3.5526e-02  4.2543e-02  2.7674e-02  9.9337e-01  4.9451e-01  5.3237e+03  0:02:39  241
 temperature limited to 1.000000e+00 in 328 cells on zone 14550 in domain 1
 
 absolute pressure limited to 5.000000e+10 in 118537 cells on zone 14550 

 turbulent viscosity limited to viscosity ratio of 1.000000e+05 in 113046 cells 
   260  1.0847e+13  2.2659e-03  3.8979e-02  4.5034e-02  2.6106e-02  9.9943e-01  4.9906e-01  4.5338e+03  0:02:38  240
 temperature limited to 1.000000e+00 in 1380 cells on zone 14550 in domain 1
 
 absolute pressure limited to 5.000000e+10 in 118544 cells on zone 14550 

 turbulent viscosity limited to viscosity ratio of 1.000000e+05 in 113269 cells 
   261  1.0803e+13  2.3342e-03  3.9369e-02  4.4771e-02  2.4139e-02  9.9721e-01  4.9764e-01  7.5495e+03  0:02:38  239
 temperature limited to 1.000000e+00 in 2185 cells on zone 14550 in domain 1
 
 absolute pressure limited to 5.000000e+10 in 118522 cells on zone 14550 

 turbulent viscosity limited to viscosity ratio of 1.000000e+05 in 113130 cells 
   262  1.1164e+13  2.4093e-03  3.9198e-02  4.0826e-02  2.1636e-02  9.8524e-01  4.9378e-01  7.3004e+03  0:02:37  238
 temperature limited to 1.000000e+00 in 2087 cells on zone 14550 in domain 1
 
 absolute pressure limited to 5.000000e+10 in 118522 cells on zone 14550 

 turbulent viscosity limited to viscosity ratio of 1.000000e+05 in 113437 cells 
   263  1.0975e+13  2.2749e-03  3.7855e-02  3.8747e-02  2.1526e-02  9.9411e-01  4.9324e-01  9.0562e+03  0:02:36  237
 temperature limited to 1.000000e+00 in 2275 cells on zone 14550 in domain 1
 
 absolute pressure limited to 5.000000e+10 in 118521 cells on zone 14550 

 turbulent viscosity limited to viscosity ratio of 1.000000e+05 in 113346 cells 
   264  1.0796e+13  2.4325e-03  3.5716e-02  3.7201e-02  2.6418e-02  9.8584e-01  4.8738e-01  8.4826e+03  0:02:36  236
 temperature limited to 1.000000e+00 in 2808 cells on zone 14550 in domain 1
 
 absolute pressure limited to 5.000000e+10 in 118527 cells on zone 14550 

 turbulent viscosity limited to viscosity ratio of 1.000000e+05 in 113495 cells 

  iter  continuity  x-velocity  y-velocity  z-velocity      energy           k       omega  report-def     time/iter
   265  1.0479e+13  2.4092e-03  3.5889e-02  3.8932e-02  2.8396e-02  9.9936e-01  4.9907e-01  9.5451e+03  0:02:35  235
 temperature limited to 1.000000e+00 in 3309 cells on zone 14550 in domain 1
 
 absolute pressure limited to 5.000000e+10 in 118513 cells on zone 14550 

 turbulent viscosity limited to viscosity ratio of 1.000000e+05 in 113272 cells 
   266  9.8812e+12  2.4531e-03  3.8768e-02  4.0423e-02  2.7325e-02  9.9801e-01  4.9837e-01  6.8177e+03  0:02:34  234
 temperature limited to 1.000000e+00 in 3491 cells on zone 14550 in domain 1
 
 absolute pressure limited to 5.000000e+10 in 118547 cells on zone 14550 

 turbulent viscosity limited to viscosity ratio of 1.000000e+05 in 113401 cells 
   267  1.0075e+13  2.5717e-03  3.8664e-02  4.1703e-02  3.0515e-02  9.9877e-01  4.9824e-01  9.4121e+03  0:02:34  233
 temperature limited to 1.000000e+00 in 3666 cells on zone 14550 in domain 1
 
 absolute pressure limited to 5.000000e+10 in 118532 cells on zone 14550 

 turbulent viscosity limited to viscosity ratio of 1.000000e+05 in 113423 cells 
   268  1.0836e+13  2.3608e-03  4.0036e-02  4.3634e-02  2.8486e-02  9.9658e-01  4.9681e-01  8.5433e+03  0:02:33  232
 temperature limited to 1.000000e+00 in 68 cells on zone 14550 in domain 1
 
 absolute pressure limited to 5.000000e+10 in 118534 cells on zone 14550 

 turbulent viscosity limited to viscosity ratio of 1.000000e+05 in 113444 cells 
   269  1.1019e+13  2.2395e-03  3.9593e-02  4.1476e-02  2.6152e-02  9.9966e-01  4.9973e-01  1.0055e+04  0:02:33  231
 temperature limited to 1.000000e+00 in 3670 cells on zone 14550 in domain 1
 
 absolute pressure limited to 5.000000e+10 in 118510 cells on zone 14550 

 turbulent viscosity limited to viscosity ratio of 1.000000e+05 in 113442 cells 
   270  9.9371e+12  2.3478e-03  3.9559e-02  4.0064e-02  2.7172e-02  9.9831e-01  4.9950e-01  6.0416e+03  0:02:32  230
 temperature limited to 1.000000e+00 in 3770 cells on zone 14550 in domain 1
 
 absolute pressure limited to 5.000000e+10 in 118542 cells on zone 14550 

 turbulent viscosity limited to viscosity ratio of 1.000000e+05 in 113505 cells 
   271  1.0267e+13  2.5051e-03  4.2619e-02  4.0480e-02  2.3059e-02  9.9159e-01  4.9877e-01  7.4223e+03  0:02:31  229
 temperature limited to 1.000000e+00 in 3890 cells on zone 14550 in domain 1
 
 absolute pressure limited to 5.000000e+10 in 118544 cells on zone 14550 

 turbulent viscosity limited to viscosity ratio of 1.000000e+05 in 113461 cells 
   272  1.1504e+13  2.5665e-03  4.1591e-02  3.8109e-02  2.2196e-02  9.9989e-01  4.9979e-01  6.4500e+03  0:02:31  228
 temperature limited to 1.000000e+00 in 3902 cells on zone 14550 in domain 1
 
[...]

 absolute pressure limited to 5.000000e+10 in 118457 cells on zone 14550 

 turbulent viscosity limited to viscosity ratio of 1.000000e+05 in 112853 cells 
   440  1.6359e+13  2.7935e-03  3.8590e-02  4.0365e-02  2.7941e-02  9.9805e-01  4.9799e-01 -4.1145e+03  0:00:39   60

 absolute pressure limited to 5.000000e+10 in 118474 cells on zone 14550 

 turbulent viscosity limited to viscosity ratio of 1.000000e+05 in 112880 cells 

  iter  continuity  x-velocity  y-velocity  z-velocity      energy           k       omega  report-def     time/iter
   441  1.6873e+13  2.6924e-03  4.0275e-02  4.0309e-02  2.8040e-02  9.9229e-01  4.9543e-01 -5.3463e+03  0:00:39   59

 absolute pressure limited to 5.000000e+10 in 118484 cells on zone 14550 

 turbulent viscosity limited to viscosity ratio of 1.000000e+05 in 112928 cells 
   442  1.7153e+13  2.4602e-03  4.0124e-02  4.0473e-02  2.9076e-02  9.9101e-01  4.9344e-01 -5.3347e+03  0:00:38   58

 absolute pressure limited to 5.000000e+10 in 118473 cells on zone 14550 

 turbulent viscosity limited to viscosity ratio of 1.000000e+05 in 113110 cells 
   443  1.8064e+13  2.4418e-03  3.9782e-02  4.0279e-02  2.5850e-02  9.8109e-01  4.8798e-01 -5.7204e+03  0:00:37   57

 absolute pressure limited to 5.000000e+10 in 118493 cells on zone 14550 

 turbulent viscosity limited to viscosity ratio of 1.000000e+05 in 113207 cells 
   444  1.8612e+13  2.3353e-03  3.8163e-02  3.9502e-02  2.3204e-02  9.7076e-01  4.8022e-01 -5.9260e+03  0:00:40   56
 temperature limited to 1.000000e+00 in 12 cells on zone 14550 in domain 1
 
 absolute pressure limited to 5.000000e+10 in 118490 cells on zone 14550 

 turbulent viscosity limited to viscosity ratio of 1.000000e+05 in 113188 cells 
   445  1.8587e+13  2.3223e-03  3.6526e-02  3.7730e-02  2.4219e-02  9.9723e-01  4.9622e-01 -5.3661e+03  0:00:38   55
 temperature limited to 1.000000e+00 in 21 cells on zone 14550 in domain 1
 
 absolute pressure limited to 5.000000e+10 in 118471 cells on zone 14550 

 turbulent viscosity limited to viscosity ratio of 1.000000e+05 in 113227 cells 
   446  1.8476e+13  2.2537e-03  3.5802e-02  3.7955e-02  2.5753e-02  9.9878e-01  4.9839e-01 -6.1211e+03  0:00:37   54
 temperature limited to 1.000000e+00 in 101 cells on zone 14550 in domain 1
 
 absolute pressure limited to 5.000000e+10 in 118438 cells on zone 14550 

 turbulent viscosity limited to viscosity ratio of 1.000000e+05 in 113196 cells 
   447  1.7905e+13  2.3851e-03  3.5678e-02  3.7893e-02  2.5069e-02  9.9733e-01  4.9780e-01 -5.6523e+03  0:00:36   53
 temperature limited to 1.000000e+00 in 242 cells on zone 14550 in domain 1
 
 absolute pressure limited to 5.000000e+10 in 118481 cells on zone 14550 

 turbulent viscosity limited to viscosity ratio of 1.000000e+05 in 113250 cells 
   448  1.8265e+13  2.4133e-03  3.5426e-02  3.6962e-02  2.5616e-02  9.8835e-01  4.9554e-01 -7.9470e+03  0:00:35   52
 temperature limited to 1.000000e+00 in 378 cells on zone 14550 in domain 1
 
 absolute pressure limited to 5.000000e+10 in 118446 cells on zone 14550 

 turbulent viscosity limited to viscosity ratio of 1.000000e+05 in 113224 cells 
   449  1.9223e+13  2.4215e-03  3.6656e-02  3.7871e-02  2.7799e-02  9.9219e-01  4.9376e-01 -9.7592e+03  0:00:34   51
 temperature limited to 1.000000e+00 in 421 cells on zone 14550 in domain 1
 
 absolute pressure limited to 5.000000e+10 in 118449 cells on zone 14550 

 turbulent viscosity limited to viscosity ratio of 1.000000e+05 in 113229 cells 
   450  1.8714e+13  2.2226e-03  3.7482e-02  3.7891e-02  2.5175e-02  9.9680e-01  4.9671e-01 -1.1441e+04  0:00:33   50
 temperature limited to 1.000000e+00 in 426 cells on zone 14550 in domain 1
 
 absolute pressure limited to 5.000000e+10 in 118470 cells on zone 14550 

 turbulent viscosity limited to viscosity ratio of 1.000000e+05 in 113247 cells 
   451  1.9404e+13  2.2014e-03  3.6536e-02  3.5815e-02  2.6535e-02  9.9790e-01  4.9807e-01 -1.2464e+04  0:00:33   49
 temperature limited to 1.000000e+00 in 475 cells on zone 14550 in domain 1
 
 absolute pressure limited to 5.000000e+10 in 118466 cells on zone 14550 

 turbulent viscosity limited to viscosity ratio of 1.000000e+05 in 113221 cells 

  iter  continuity  x-velocity  y-velocity  z-velocity      energy           k       omega  report-def     time/iter
   452  2.0303e+13  2.0714e-03  3.6106e-02  3.7488e-02  2.7136e-02  9.9073e-01  4.9539e-01 -1.2276e+04  0:00:32   48
 temperature limited to 1.000000e+00 in 208 cells on zone 14550 in domain 1
 
 absolute pressure limited to 5.000000e+10 in 118452 cells on zone 14550 

 turbulent viscosity limited to viscosity ratio of 1.000000e+05 in 112565 cells 
   453  2.0253e+13  2.0492e-03  3.5100e-02  3.7271e-02  2.5753e-02  9.8784e-01  4.9250e-01 -9.6902e+03  0:00:31   47
 temperature limited to 1.000000e+00 in 475 cells on zone 14550 in domain 1
 
 absolute pressure limited to 5.000000e+10 in 118446 cells on zone 14550 

 turbulent viscosity limited to viscosity ratio of 1.000000e+05 in 112550 cells 
   454  1.9528e+13  1.8250e-03  3.5004e-02  3.6844e-02  2.3322e-02  9.9915e-01  4.9898e-01 -5.8858e+03  0:00:30   46
 temperature limited to 1.000000e+00 in 124 cells on zone 14550 in domain 1
 
 absolute pressure limited to 5.000000e+10 in 118397 cells on zone 14550 

 turbulent viscosity limited to viscosity ratio of 1.000000e+05 in 112261 cells 
   455  1.9946e+13  2.2266e-03  3.2660e-02  3.4539e-02  2.1960e-02  9.9563e-01  4.9772e-01 -3.4501e+03  0:00:30   45
 temperature limited to 1.000000e+00 in 496 cells on zone 14550 in domain 1
 
 absolute pressure limited to 5.000000e+10 in 118465 cells on zone 14550 

 turbulent viscosity limited to viscosity ratio of 1.000000e+05 in 112415 cells 
   456  1.9275e+13  1.9021e-03  3.2925e-02  3.5571e-02  2.2337e-02  9.9797e-01  4.9796e-01 -3.7638e+03  0:00:29   44
 temperature limited to 1.000000e+00 in 302 cells on zone 14550 in domain 1
 
 absolute pressure limited to 5.000000e+10 in 118436 cells on zone 14550 

 turbulent viscosity limited to viscosity ratio of 1.000000e+05 in 112455 cells 
   457  1.9486e+13  2.3633e-03  3.3273e-02  3.5047e-02  2.4325e-02  9.9642e-01  4.9702e-01 -3.3904e+03  0:00:28   43
 temperature limited to 1.000000e+00 in 343 cells on zone 14550 in domain 1
 
 absolute pressure limited to 5.000000e+10 in 118477 cells on zone 14550 

 turbulent viscosity limited to viscosity ratio of 1.000000e+05 in 112647 cells 
   458  1.9783e+13  2.0697e-03  3.7452e-02  3.6371e-02  2.5409e-02  9.9925e-01  4.9890e-01 -8.7651e+03  0:00:28   42
 temperature limited to 1.000000e+00 in 69 cells on zone 14550 in domain 1
 
 absolute pressure limited to 5.000000e+10 in 118473 cells on zone 14550 

 turbulent viscosity limited to viscosity ratio of 1.000000e+05 in 112274 cells 
   459  2.0832e+13  2.1377e-03  3.8272e-02  3.7969e-02  2.2971e-02  9.9942e-01  4.9938e-01 -9.7533e+03  0:00:27   41
 temperature limited to 1.000000e+00 in 107 cells on zone 14550 in domain 1
 
 absolute pressure limited to 5.000000e+10 in 118430 cells on zone 14550 

 turbulent viscosity limited to viscosity ratio of 1.000000e+05 in 112339 cells 
   460  2.0037e+13  1.8061e-03  4.0113e-02  3.7467e-02  2.0544e-02  9.9944e-01  4.9957e-01 -1.2367e+04  0:00:26   40
 temperature limited to 1.000000e+00 in 66 cells on zone 14550 in domain 1
 
 absolute pressure limited to 5.000000e+10 in 118365 cells on zone 14550 

 turbulent viscosity limited to viscosity ratio of 1.000000e+05 in 112128 cells 
   461  1.8975e+13  1.9930e-03  3.7698e-02  3.4619e-02  1.9310e-02  9.9733e-01  4.9911e-01 -8.5135e+03  0:00:26   39
 temperature limited to 1.000000e+00 in 76 cells on zone 14550 in domain 1
 
 absolute pressure limited to 5.000000e+10 in 118382 cells on zone 14550 

 turbulent viscosity limited to viscosity ratio of 1.000000e+05 in 111837 cells 
   462  1.9007e+13  2.1649e-03  3.5804e-02  3.3934e-02  1.7063e-02  9.8708e-01  4.9782e-01 -1.0440e+04  0:00:25   38
 temperature limited to 1.000000e+00 in 55 cells on zone 14550 in domain 1
 
 absolute pressure limited to 5.000000e+10 in 118406 cells on zone 14550 

 turbulent viscosity limited to viscosity ratio of 1.000000e+05 in 112170 cells 

  iter  continuity  x-velocity  y-velocity  z-velocity      energy           k       omega  report-def     time/iter
   463  1.9874e+13  2.1002e-03  3.4555e-02  3.1286e-02  1.9648e-02  9.9271e-01  4.9657e-01 -9.1823e+03  0:00:24   37
 temperature limited to 1.000000e+00 in 48 cells on zone 14550 in domain 1
 
 absolute pressure limited to 5.000000e+10 in 118389 cells on zone 14550 

 turbulent viscosity limited to viscosity ratio of 1.000000e+05 in 112054 cells 
   464  1.9279e+13  2.3558e-03  3.4873e-02  3.1369e-02  2.3473e-02  9.8250e-01  4.9305e-01 -1.1748e+04  0:00:24   36
 temperature limited to 1.000000e+00 in 63 cells on zone 14550 in domain 1
 
 absolute pressure limited to 5.000000e+10 in 118421 cells on zone 14550 

 turbulent viscosity limited to viscosity ratio of 1.000000e+05 in 112006 cells 
   465  1.9404e+13  1.8796e-03  3.7687e-02  3.6909e-02  2.2212e-02  9.9572e-01  4.9513e-01 -1.4392e+04  0:00:23   35
 temperature limited to 1.000000e+00 in 102 cells on zone 14550 in domain 1
 
 absolute pressure limited to 5.000000e+10 in 118374 cells on zone 14550 

 turbulent viscosity limited to viscosity ratio of 1.000000e+05 in 111701 cells 
   466  1.9340e+13  2.0185e-03  3.7751e-02  3.7533e-02  2.0238e-02  9.8641e-01  4.9194e-01 -1.6367e+04  0:00:22   34
 temperature limited to 1.000000e+00 in 78 cells on zone 14550 in domain 1
 
 absolute pressure limited to 5.000000e+10 in 118389 cells on zone 14550 

 turbulent viscosity limited to viscosity ratio of 1.000000e+05 in 112261 cells 
   467  1.8022e+13  2.0741e-03  3.7558e-02  3.8986e-02  2.2300e-02  9.8732e-01  4.9270e-01 -1.6889e+04  0:00:22   33
 temperature limited to 1.000000e+00 in 103 cells on zone 14550 in domain 1
 
 absolute pressure limited to 5.000000e+10 in 118449 cells on zone 14550 

 turbulent viscosity limited to viscosity ratio of 1.000000e+05 in 112026 cells 
   468  2.0104e+13  2.5752e-03  3.8781e-02  4.0822e-02  2.1589e-02  9.9090e-01  4.9098e-01 -2.1768e+04  0:00:21   32
 temperature limited to 1.000000e+00 in 166 cells on zone 14550 in domain 1
 
 absolute pressure limited to 5.000000e+10 in 118412 cells on zone 14550 

 turbulent viscosity limited to viscosity ratio of 1.000000e+05 in 112078 cells 
   469  2.0734e+13  2.0307e-03  4.0337e-02  4.2031e-02  2.0330e-02  9.9798e-01  4.9714e-01 -2.5513e+04  0:00:20   31
 temperature limited to 1.000000e+00 in 95 cells on zone 14550 in domain 1
 
 absolute pressure limited to 5.000000e+10 in 118334 cells on zone 14550 

 turbulent viscosity limited to viscosity ratio of 1.000000e+05 in 112022 cells 
   470  1.8863e+13  2.0861e-03  3.8831e-02  4.1159e-02  1.8513e-02  9.9454e-01  4.9531e-01 -2.3930e+04  0:00:20   30

 absolute pressure limited to 5.000000e+10 in 118394 cells on zone 14550 

 turbulent viscosity limited to viscosity ratio of 1.000000e+05 in 112535 cells 
   471  1.8761e+13  2.1317e-03  3.6589e-02  3.8372e-02  2.2583e-02  9.9248e-01  4.9417e-01 -2.6538e+04  0:00:19   29
 temperature limited to 1.000000e+00 in 7 cells on zone 14550 in domain 1
 
 absolute pressure limited to 5.000000e+10 in 118448 cells on zone 14550 

 turbulent viscosity limited to viscosity ratio of 1.000000e+05 in 112469 cells 
   472  2.0963e+13  2.5814e-03  3.9641e-02  3.9669e-02  2.3558e-02  9.9262e-01  4.9317e-01 -2.7560e+04  0:00:18   28

 absolute pressure limited to 5.000000e+10 in 118459 cells on zone 14550 

 turbulent viscosity limited to viscosity ratio of 1.000000e+05 in 112804 cells 
   473  2.1082e+13  1.7870e-03  4.3771e-02  4.3672e-02  2.3625e-02  9.9696e-01  4.9659e-01 -3.1538e+04  0:00:18   27

 absolute pressure limited to 5.000000e+10 in 118420 cells on zone 14550 

 turbulent viscosity limited to viscosity ratio of 1.000000e+05 in 112768 cells 

  iter  continuity  x-velocity  y-velocity  z-velocity      energy           k       omega  report-def     time/iter
   474  2.1595e+13  2.2254e-03  4.1473e-02  4.0916e-02  2.3119e-02  9.8789e-01  4.9319e-01 -2.9421e+04  0:00:17   26
 temperature limited to 1.000000e+00 in 2 cells on zone 14550 in domain 1
 
 absolute pressure limited to 5.000000e+10 in 118427 cells on zone 14550 

 turbulent viscosity limited to viscosity ratio of 1.000000e+05 in 112473 cells 
   475  2.1105e+13  1.8821e-03  4.2223e-02  4.1274e-02  2.0853e-02  9.9602e-01  4.9631e-01 -3.3651e+04  0:00:16   25

 absolute pressure limited to 5.000000e+10 in 118409 cells on zone 14550 

 turbulent viscosity limited to viscosity ratio of 1.000000e+05 in 111564 cells 
   476  2.0697e+13  2.0344e-03  4.0435e-02  3.9725e-02  1.7864e-02  9.8640e-01  4.9278e-01 -2.8834e+04  0:00:16   24

 absolute pressure limited to 5.000000e+10 in 118367 cells on zone 14550 

 turbulent viscosity limited to viscosity ratio of 1.000000e+05 in 111224 cells 
   477  2.0224e+13  1.8854e-03  3.8929e-02  3.5874e-02  1.7735e-02  9.7230e-01  4.8708e-01 -3.2385e+04  0:00:15   23

 absolute pressure limited to 5.000000e+10 in 118382 cells on zone 14550 

 turbulent viscosity limited to viscosity ratio of 1.000000e+05 in 110756 cells 
   478  1.9800e+13  2.0765e-03  3.8449e-02  3.4810e-02  1.7956e-02  9.5586e-01  4.7822e-01 -3.0713e+04  0:00:14   22

 absolute pressure limited to 5.000000e+10 in 118381 cells on zone 14550 

 turbulent viscosity limited to viscosity ratio of 1.000000e+05 in 110291 cells 
   479  2.0106e+13  2.1216e-03  3.8863e-02  3.5670e-02  1.8518e-02  9.8559e-01  4.8240e-01 -3.3245e+04  0:00:14   21

 absolute pressure limited to 5.000000e+10 in 118346 cells on zone 14550 

 turbulent viscosity limited to viscosity ratio of 1.000000e+05 in 109847 cells 
   480  1.9952e+13  2.0972e-03  3.7524e-02  3.6229e-02  1.8378e-02  9.9162e-01  4.8861e-01 -3.0569e+04  0:00:13   20

 absolute pressure limited to 5.000000e+10 in 118352 cells on zone 14550 

 turbulent viscosity limited to viscosity ratio of 1.000000e+05 in 109729 cells 
   481  1.8969e+13  2.1792e-03  3.7320e-02  3.8423e-02  1.8156e-02  9.7463e-01  4.7996e-01 -3.0787e+04  0:00:12   19

 absolute pressure limited to 5.000000e+10 in 118364 cells on zone 14550 

 turbulent viscosity limited to viscosity ratio of 1.000000e+05 in 109401 cells 
   482  2.0007e+13  2.2263e-03  3.6890e-02  3.8096e-02  1.7474e-02  9.9586e-01  4.9410e-01 -2.7255e+04  0:00:12   18

 absolute pressure limited to 5.000000e+10 in 118318 cells on zone 14550 

 turbulent viscosity limited to viscosity ratio of 1.000000e+05 in 109012 cells 
   483  1.9854e+13  2.2018e-03  3.7759e-02  3.9560e-02  1.9683e-02  9.8973e-01  4.9123e-01 -2.6406e+04  0:00:11   17

 absolute pressure limited to 5.000000e+10 in 118385 cells on zone 14550 

 turbulent viscosity limited to viscosity ratio of 1.000000e+05 in 109217 cells 
   484  1.9825e+13  2.2076e-03  3.9782e-02  4.2290e-02  2.2461e-02  9.9950e-01  4.9929e-01 -2.2988e+04  0:00:10   16

 absolute pressure limited to 5.000000e+10 in 118456 cells on zone 14550 

 turbulent viscosity limited to viscosity ratio of 1.000000e+05 in 109143 cells 

  iter  continuity  x-velocity  y-velocity  z-velocity      energy           k       omega  report-def     time/iter
   485  2.3422e+13  2.4744e-03  4.2117e-02  4.3008e-02  2.5521e-02  9.9808e-01  4.9839e-01 -2.1716e+04  0:00:10   15

 absolute pressure limited to 5.000000e+10 in 118423 cells on zone 14550 

 turbulent viscosity limited to viscosity ratio of 1.000000e+05 in 109683 cells 
   486  2.4534e+13  1.6770e-03  4.3628e-02  4.7066e-02  2.4573e-02  9.9892e-01  4.9876e-01 -2.0674e+04  0:00:09   14

 absolute pressure limited to 5.000000e+10 in 118437 cells on zone 14550 

 turbulent viscosity limited to viscosity ratio of 1.000000e+05 in 109809 cells 
   487  2.5035e+13  2.1164e-03  4.0755e-02  4.4274e-02  2.2762e-02  9.9468e-01  4.9702e-01 -2.0828e+04  0:00:09   13

 absolute pressure limited to 5.000000e+10 in 118458 cells on zone 14550 

 turbulent viscosity limited to viscosity ratio of 1.000000e+05 in 110398 cells 
   488  2.5084e+13  1.6567e-03  4.2156e-02  4.3308e-02  2.0954e-02  9.8930e-01  4.9456e-01 -2.1886e+04  0:00:08   12

 absolute pressure limited to 5.000000e+10 in 118454 cells on zone 14550 

 turbulent viscosity limited to viscosity ratio of 1.000000e+05 in 110486 cells 
   489  2.5399e+13  2.0083e-03  3.9866e-02  4.0680e-02  1.9586e-02  9.7788e-01  4.9011e-01 -2.1113e+04  0:00:07   11

 absolute pressure limited to 5.000000e+10 in 118445 cells on zone 14550 

 turbulent viscosity limited to viscosity ratio of 1.000000e+05 in 111334 cells 
   490  2.5043e+13  1.6603e-03  4.1470e-02  3.9734e-02  1.9610e-02  9.9851e-01  4.9847e-01 -2.3008e+04  0:00:07   10

 absolute pressure limited to 5.000000e+10 in 118452 cells on zone 14550 

 turbulent viscosity limited to viscosity ratio of 1.000000e+05 in 111362 cells 
   491  2.6260e+13  1.9861e-03  3.9794e-02  3.7958e-02  2.0882e-02  9.9499e-01  4.9726e-01 -2.0773e+04  0:00:06    9

 absolute pressure limited to 5.000000e+10 in 118407 cells on zone 14550 

 turbulent viscosity limited to viscosity ratio of 1.000000e+05 in 111618 cells 
   492  2.5904e+13  1.5719e-03  4.1443e-02  4.0446e-02  1.9409e-02  9.9968e-01  4.9974e-01 -2.3712e+04  0:00:05    8

 absolute pressure limited to 5.000000e+10 in 118358 cells on zone 14550 

 turbulent viscosity limited to viscosity ratio of 1.000000e+05 in 111481 cells 
   493  2.4947e+13  1.7763e-03  3.8893e-02  4.0088e-02  1.6530e-02  9.9856e-01  4.9940e-01 -2.0850e+04  0:00:05    7

 absolute pressure limited to 5.000000e+10 in 118342 cells on zone 14550 

 turbulent viscosity limited to viscosity ratio of 1.000000e+05 in 111489 cells 
   494  2.4126e+13  1.7411e-03  3.7541e-02  3.7705e-02  1.6975e-02  9.9362e-01  4.9880e-01 -2.2117e+04  0:00:04    6

 absolute pressure limited to 5.000000e+10 in 118414 cells on zone 14550 

 turbulent viscosity limited to viscosity ratio of 1.000000e+05 in 111275 cells 
   495  2.5279e+13  1.8524e-03  3.6698e-02  3.6384e-02  1.6467e-02  9.8616e-01  4.9734e-01 -2.0604e+04  0:00:03    5

 absolute pressure limited to 5.000000e+10 in 118365 cells on zone 14550 

 turbulent viscosity limited to viscosity ratio of 1.000000e+05 in 111049 cells 

  iter  continuity  x-velocity  y-velocity  z-velocity      energy           k       omega  report-def     time/iter
   496  2.4402e+13  1.6374e-03  3.7397e-02  3.6121e-02  1.6775e-02  9.8639e-01  4.9545e-01 -2.2041e+04  0:00:03    4

 absolute pressure limited to 5.000000e+10 in 118392 cells on zone 14550 

 turbulent viscosity limited to viscosity ratio of 1.000000e+05 in 110790 cells 
   497  2.3738e+13  1.7773e-03  3.8066e-02  3.5952e-02  1.7080e-02  9.9028e-01  4.9379e-01 -2.0452e+04  0:00:02    3
 temperature limited to 1.000000e+00 in 20 cells on zone 14550 in domain 1
 
 absolute pressure limited to 5.000000e+10 in 118354 cells on zone 14550 

 turbulent viscosity limited to viscosity ratio of 1.000000e+05 in 110479 cells 
   498  2.4918e+13  1.7540e-03  3.9523e-02  3.6304e-02  1.8504e-02  9.9445e-01  4.9451e-01 -2.1785e+04  0:00:01    2
 temperature limited to 1.000000e+00 in 151 cells on zone 14550 in domain 1
 
 absolute pressure limited to 5.000000e+10 in 118331 cells on zone 14550 

 turbulent viscosity limited to viscosity ratio of 1.000000e+05 in 110237 cells 
   499  2.4987e+13  1.7998e-03  4.0890e-02  3.8447e-02  1.8364e-02  9.9083e-01  4.9281e-01 -2.0092e+04  0:00:01    1
 temperature limited to 1.000000e+00 in 195 cells on zone 14550 in domain 1
 
 absolute pressure limited to 5.000000e+10 in 118351 cells on zone 14550 

 turbulent viscosity limited to viscosity ratio of 1.000000e+05 in 110147 cells 
   500  2.5267e+13  1.8072e-03  4.1815e-02  3.8992e-02  1.7977e-02  9.9214e-01  4.9206e-01 -2.1382e+04  0:00:00    0

> Halting due to end of file on input.
Auto-Transcript Stop Time:  19:32:11, 06 Nov 2024 
Total Transcript Time: 5 Minute 54 Second.

Automatic transcript closed.
