/opt/crc/a/ansys/2024R1/v241/fluent/fluent24.1.0/bin/fluent -r24.1.0 3ddp -t4 -g
/opt/crc/a/ansys/2024R1/v241/fluent/fluent24.1.0/cortex/lnamd64/cortex.24.1.0 -f fluent -g (fluent "3ddp -pshmem  -host -r24.1.0 -t4 -mpi=intel -path/opt/crc/a/ansys/2024R1/v241/fluent -ssh")

Opening input/output transcript to file "/tmp/926190.1.long/worker-241760-2840309/task.25/fluent-20241106-121000-2854429.trn".
Auto-Transcript Start Time:  12:10:00, 06 Nov 2024 
/opt/crc/a/ansys/2024R1/v241/fluent/fluent24.1.0/bin/fluent -r24.1.0 3ddp -pshmem -host -t4 -mpi=intel -path/opt/crc/a/ansys/2024R1/v241/fluent -ssh -cx d32cepyc246.crc.nd.edu:41129:41281
Starting /opt/crc/a/ansys/2024R1/v241/fluent/fluent24.1.0/lnamd64/3ddp_host/fluent.24.1.0 host -cx d32cepyc246.crc.nd.edu:41129:41281 "(list (rpsetvar (QUOTE parallel/function) "fluent 3ddp -flux -node -r24.1.0 -t4 -pshmem -mpi=intel -ssh") (rpsetvar (QUOTE parallel/rhost) "") (rpsetvar (QUOTE parallel/ruser) "") (rpsetvar (QUOTE parallel/nprocs_string) "4") (rpsetvar (QUOTE parallel/auto-spawn?) #t) (rpsetvar (QUOTE parallel/trace-level) 0) (rpsetvar (QUOTE parallel/remote-shell) 1) (rpsetvar (QUOTE parallel/path) "/opt/crc/a/ansys/2024R1/v241/fluent") (rpsetvar (QUOTE parallel/hostsfile) "") (rpsetvar (QUOTE gpuapp/devices) ""))"

              Welcome to ANSYS Fluent 2024 R1

              Copyright 1987-2024 ANSYS, Inc. All Rights Reserved.
              Unauthorized use, distribution or duplication is prohibited.
              This product is subject to U.S. laws governing export and re-export.
              For full Legal Notice, see documentation.

Build Time: Nov 22 2023 10:07:25 EST  Build Id: 10184  
 
Connected License Server List:	7504@linux5-lic.crc.nd.edu

     --------------------------------------------------------------
     This is an academic version of ANSYS FLUENT. Usage of this product
     license is limited to the terms and conditions specified in your ANSYS
     license form, additional terms section.
     --------------------------------------------------------------
Host spawning Node 0 on machine "d32cepyc246.crc.nd.edu" (unix).
/opt/crc/a/ansys/2024R1/v241/fluent/fluent24.1.0/bin/fluent -r24.1.0 3ddp -flux -node -t4 -pshmem -mpi=intel -ssh -mport 10.32.93.3:10.32.93.3:33881:0
Starting /opt/crc/a/ansys/2024R1/v241/fluent/fluent24.1.0/multiport/mpi/lnamd64/intel2021/bin/mpirun --rsh=ssh -f /tmp/fluent-appfile.etracey.2854846 -genv I_MPI_FABRICS shm -genv FLUENT_ARCH lnamd64 -genv I_MPI_DEBUG 0 -genv I_MPI_ADJUST_GATHERV 3 -genv I_MPI_ADJUST_ALLREDUCE 2 -genv I_MPI_PLATFORM auto -genv PYTHONHOME /opt/crc/a/ansys/2024R1/v241/fluent/fluent24.1.0/../../commonfiles/CPython/3_10/linx64/Release/python -genv FLUENT_PROD_DIR /opt/crc/a/ansys/2024R1/v241/fluent/fluent24.1.0 -genv FLUENT_AFFINITY 0 -genv I_MPI_PIN enable -genv KMP_AFFINITY disabled -n 4 /opt/crc/a/ansys/2024R1/v241/fluent/fluent24.1.0/lnamd64/3ddp_node/fluent_mpi.24.1.0 node -mpiw intel -pic shmem -mport 10.32.93.3:10.32.93.3:33881:0

------------------------------------------------------------------------------------
ID    Hostname              Core  O.S.      PID              Vendor                
------------------------------------------------------------------------------------
n0-3  d32cepyc246.crc.nd.e  4/64  Linux-64  2854900-2854903  AMD EPYC 7543 32-Core 
host  d32cepyc246.crc.nd.e        Linux-64  2854639          AMD EPYC 7543 32-Core 

MPI Option Selected: intel
Selected system interconnect: shared-memory
------------------------------------------------------------------------------------


Initializing SGE
Done.
Cleanup script file is /tmp/926190.1.long/worker-241760-2840309/task.25/cleanup-fluent-d32cepyc246.crc.nd.edu-2854639.sh
Key Behavioral Changes:
Fluent Guided Meshing Workflows: 
Workflow template files (.wft) are now saved by default whenever the mesh is saved. You can change the automatic creation of .wft files in Preferences. 
Journaling: 
When Ansys Fluent encounters an invalid input in a journal file that is being replayed, it now raises an error condition and aborts the journal processing. 
Turbulence: 
The value of kappa used in the Spalart-Allmaras model for interior terms was inconsistent with the reference publications of the model. Fluent historically used a value of 0.4187, but to produce results consistent with the published model, the value should be 0.41. This issue was first addressed in a previous Fluent version and access to the kappa value was given in the GUI while keeping the old default of 0.4187. In Fluent 2024 R1, the default value is now changed to 0.41. 
Turbomachinery: 
For Blade Film Cooling, you can now specify stationary holes on the surfaces of a moving/rotating cell zone in transient cases. 
Boundaries previously referred to as "casings" in the Turbo Topology definition are now referred to as "shrouds." 
Density-Based Solver: 
The High Speed Numerics have been updated to increase the robustness of the Roe-FDS numerical flux against shock-instabilities and the carbuncle phenomenon. This modification may produce a slight solution change for cases combining Roe-FDS and HSN. 
Multiphase Models: 
Modeling of open channel flows in conjunction with the translation moving reference frame (MRF) has been improved resulting in more accurate and stable solution. In addition, a solution methodology has been suggested to provide better stability for high-speed hull simulations. 
Parallel Processing: 
Using dynamic process spawning now requires that you manually specify the interconnect as -pethernet for shared memory or distributed memory without InfiniBand, and -pib.ofed for distributed memory over InfiniBand. 
Refer to the Ansys, Inc. Release Notes for a full listing of the new features included in Ansys Fluent 2024 R1. 
 +------------------------------------------------------------------+
 |                    ANSYS Product Improvement                     |
 |                                                                  |
 |   ANSYS Product Improvement Program helps improve ANSYS          |
 |   products. Participating in this program is like filling out a  |
 |   survey. Without interrupting your work, the software reports   |
 |   anonymous usage information such as errors, machine and        |
 |   solver statistics, features used, etc. to ANSYS. We never      |
 |   use the data to identify or contact you.                       |
 |   The data does NOT contain:                                     |
 |   - Any personally identifiable information including names,     |
 |     IP addresses, file names, part names, etc.                   |
 |   - Any information about your geometry or design specific       |
 |     inputs.                                                      |
 |   You can stop participation at any time. To change your         |
 |   selection go to Help >> ANSYS Product Improvement Program      |
 |   in the GUI.                                                    |
 |   For more information about the ANSYS Privacy Policy, please    |
 |   check: http://www.ansys.com/privacy                            |
 |                                                                  |
 +------------------------------------------------------------------+

> Fast-loading "/opt/crc/a/ansys/2024R1/v241/fluent/fluent24.1.0/addons/afd/lib/hdfio.bin"
Done.
WARNING: Rank:0 Machine d32cepyc246.crc.nd.edu has 57 % of RAM filled with file buffer caches.
This can cause potential performance issues. Please use -cflush flag to flush the cache. 


Reading from d32cepyc246.crc.nd.edu:"/tmp/926190.1.long/worker-241760-2840309/task.25/case.cas.h5" in NODE0 mode ...
  Reading mesh ...
      114744 cells,     1 cell zone  ...
         114744 polyhedra cells,  zone id: 14422
      659728 faces,     7 face zones ...
           5706 polygonal symmetry faces,  zone id: 41
           5819 polygonal symmetry faces,  zone id: 42
            454 polygonal pressure-far-field faces,  zone id: 43
            464 polygonal pressure-far-field faces,  zone id: 44
           1889 polygonal pressure-far-field faces,  zone id: 45
          12654 polygonal wall faces,  zone id: 46
         632742 polygonal interior faces,  zone id: 14421
      481363 nodes,     1 node zone  ...
  Done.


Building...
     mesh
	auto partitioning mesh by Metis (fast),
	distributing mesh
		parts....,
		faces....,
		nodes....,
		cells....,
        bandwidth reduction using Reverse Cuthill-McKee: 29024/2203 = 13.1748
  Reading boundary layer flags ...
  Done.

     materials,
     interface,
     domains,
	mixture
     zones,
	symmetry1
	symmetry2
	outlet
	inlet
	farfield
	launchvehicle
	interior--flowfield
	flowfield
     parallel,
Done.

> adjoint/                parallel/               server/
define/                 parametric-study/       solve/
display/                plot/                   surface/
exit                    preferences/            turbo-workflow/
file/                   print-license-usage     views/
mesh/                   report/

> 
> adjoint/                parallel/               server/
define/                 parametric-study/       solve/
display/                plot/                   surface/
exit                    preferences/            turbo-workflow/
file/                   print-license-usage     views/
mesh/                   report/

> 
> adjoint/                parallel/               server/
define/                 parametric-study/       solve/
display/                plot/                   surface/
exit                    preferences/            turbo-workflow/
file/                   print-license-usage     views/
mesh/                   report/

> air is a fluid

Density
no data required.


> adjoint/                parallel/               server/
define/                 parametric-study/       solve/
display/                plot/                   surface/
exit                    preferences/            turbo-workflow/
file/                   print-license-usage     views/
mesh/                   report/

> (farfield inlet outlet)

> (farfield inlet outlet)

> (farfield inlet outlet)

> adjoint/                parallel/               server/
define/                 parametric-study/       solve/
display/                plot/                   surface/
exit                    preferences/            turbo-workflow/
file/                   print-license-usage     views/
mesh/                   report/

> (launchvehicle)

> adjoint/                parallel/               server/
define/                 parametric-study/       solve/
display/                plot/                   surface/
exit                    preferences/            turbo-workflow/
file/                   print-license-usage     views/
mesh/                   report/

> 
> 
> 
> 
> 
> 
> adjoint/                parallel/               server/
define/                 parametric-study/       solve/
display/                plot/                   surface/
exit                    preferences/            turbo-workflow/
file/                   print-license-usage     views/
mesh/                   report/

> 
> 
> 
> adjoint/                parallel/               server/
define/                 parametric-study/       solve/
display/                plot/                   surface/
exit                    preferences/            turbo-workflow/
file/                   print-license-usage     views/
mesh/                   report/

> 
> 
> 
> adjoint/                parallel/               server/
define/                 parametric-study/       solve/
display/                plot/                   surface/
exit                    preferences/            turbo-workflow/
file/                   print-license-usage     views/
mesh/                   report/

> 
> adjoint/                parallel/               server/
define/                 parametric-study/       solve/
display/                plot/                   surface/
exit                    preferences/            turbo-workflow/
file/                   print-license-usage     views/
mesh/                   report/

> 
Initialize using the hybrid initialization method.

Checking case topology... 
-This case has multiple farfield bc 
-Case will be initialized with constant parameters

	iter		scalar-0

	1		1.000000e+00
	2		8.323089e-04
	3		1.373992e-04
	4		2.087330e-05
	5		3.758321e-06
	6		6.858005e-07
	7		1.267940e-07
	8		2.381061e-08
	9		8.255990e-09
	10		1.614607e-09

Hybrid initialization is done.

Note: Settings to improve the robustness of pathline and
      particle tracking have been automatically enabled.


> 
  iter  continuity  x-velocity  y-velocity  z-velocity      energy           k       omega  report-def     time/iter
     1  1.0000e+00  1.4908e-03  1.6166e-03  2.1569e-03  1.4128e-05  9.5678e-01  4.8805e-01  1.5077e+00  0:05:10  499
     2  1.0000e+00  2.7539e-03  4.4049e-03  2.1555e-03  7.3261e-05  9.1631e-01  4.7779e-01  1.9580e+00  0:05:04  498
     3  1.0000e+00  3.3380e-03  4.0239e-03  3.2514e-03  5.9722e-05  8.5893e-01  4.6816e-01  1.5534e+00  0:04:58  497
     4  1.0000e+00  3.9768e-03  7.3981e-03  2.2114e-03  1.2595e-04  8.6467e-01  4.3084e-01  1.3496e+00  0:04:55  496
     5  1.0000e+00  4.3187e-03  9.1345e-03  7.4800e-03  3.9637e-04  8.1065e-01  4.1865e-01  8.8341e-01  0:04:54  495
     6  1.2742e+00  1.0463e-02  1.8575e-02  5.7059e-03  2.5908e-04  9.2345e-01  3.7453e-01  9.0179e-01  0:04:51  494
     7  1.2264e+00  8.6664e-03  1.1502e-02  8.8155e-03  4.8710e-04  7.6269e-01  3.7025e-01  5.8865e-01  0:04:47  493
     8  1.6066e+00  1.4210e-02  2.7104e-02  8.4232e-03  5.5063e-04  7.9013e-01  3.5010e-01  8.6115e-01  0:04:45  492
     9  1.4706e+00  1.5673e-02  1.7333e-02  6.7381e-03  7.2528e-04  7.8430e-01  3.8504e-01  1.4073e-01  0:04:42  491
    10  1.8857e+00  1.6054e-02  3.6795e-02  9.8149e-03  7.2547e-04  8.1216e-01  4.0274e-01  4.8407e-01  0:04:41  490
    11  1.7245e+00  2.0166e-02  2.3825e-02  7.2374e-03  9.5282e-04  7.9409e-01  3.9985e-01 -1.3809e-01  0:04:41  489

  iter  continuity  x-velocity  y-velocity  z-velocity      energy           k       omega  report-def     time/iter
    12  1.9431e+00  1.9484e-02  4.5483e-02  9.0107e-03  9.2238e-04  8.0762e-01  4.1454e-01  8.7130e-02  0:04:44  488
    13  1.9435e+00  2.6226e-02  3.5791e-02  8.3274e-03  1.1959e-03  8.7556e-01  4.4617e-01 -3.8545e-01  0:04:43  487
    14  2.1942e+00  2.3059e-02  5.4273e-02  1.0240e-02  1.5837e-03  8.1026e-01  4.4098e-01 -1.8069e-01  0:04:41  486
    15  2.2110e+00  3.5071e-02  4.9094e-02  1.0180e-02  1.3813e-03  8.4976e-01  4.3434e-01 -2.5351e-01  0:04:38  485
    16  2.2988e+00  2.7790e-02  6.2703e-02  1.0139e-02  1.8355e-03  8.1830e-01  4.6160e-01 -3.9615e-01  0:04:38  484
    17  2.6201e+00  4.5339e-02  6.3398e-02  1.3011e-02  2.2901e-03  9.5491e-01  5.0809e-01 -2.3421e-01  0:04:39  483
    18  2.6082e+00  3.0564e-02  6.8493e-02  1.1108e-02  2.4747e-03  8.2624e-01  4.7210e-01 -6.3992e-01  0:04:40  482
    19  3.0958e+00  6.0710e-02  7.1710e-02  1.7242e-02  3.3201e-03  9.3540e-01  5.1864e-01 -3.6838e-01  0:04:38  481
    20  2.8932e+00  3.8353e-02  8.1029e-02  1.4082e-02  3.6809e-03  7.9800e-01  4.5812e-01 -5.1013e-01  0:04:35  480
    21  3.1188e+00  6.9712e-02  7.1110e-02  1.9971e-02  3.8915e-03  1.2244e+00  7.2696e-01 -8.2399e-01  0:04:34  479
    22  3.1524e+00  5.3688e-02  9.8732e-02  1.8833e-02  4.8573e-03  9.7517e-01  5.2491e-01 -8.6833e-01  0:04:36  478

  iter  continuity  x-velocity  y-velocity  z-velocity      energy           k       omega  report-def     time/iter
    23  3.2528e+00  8.0331e-02  7.5496e-02  2.0489e-02  4.3126e-03  9.7518e-01  5.1192e-01 -1.2617e+00  0:04:37  477
    24  3.4438e+00  6.8506e-02  9.7337e-02  2.2403e-02  6.5165e-03  9.9495e-01  5.3690e-01 -8.6642e-01  0:04:36  476
    25  3.6284e+00  8.9647e-02  7.7432e-02  2.3449e-02  5.7171e-03  9.4721e-01  5.1133e-01 -1.1940e+00  0:04:34  475
    26  3.7123e+00  6.3312e-02  9.9972e-02  2.1544e-02  6.9215e-03  1.0677e+00  5.8752e-01 -1.1758e+00  0:04:31  474
    27  3.8348e+00  9.7506e-02  8.3149e-02  2.3484e-02  8.4356e-03  9.8799e-01  5.1836e-01 -1.7939e+00  0:04:30  473
    28  3.8346e+00  7.3462e-02  8.1784e-02  2.2756e-02  6.2488e-03  9.4011e-01  4.9904e-01 -8.4723e-01  0:04:31  472
    29  4.1740e+00  8.0356e-02  8.8308e-02  2.5859e-02  8.4002e-03  1.1876e+00  6.2313e-01 -1.6922e+00  0:04:31  471
    30  4.2771e+00  7.7317e-02  1.0251e-01  2.3106e-02  6.5760e-03  9.6523e-01  5.0538e-01 -1.1862e+00  0:04:30  470
    31  4.2299e+00  8.2229e-02  8.1452e-02  2.4255e-02  7.5364e-03  1.1007e+00  5.8659e-01 -1.9072e+00  0:04:28  469
    32  4.3652e+00  9.1800e-02  9.1848e-02  2.2960e-02  8.9182e-03  9.7431e-01  5.0692e-01 -4.8669e-01  0:04:27  468
    33  4.4143e+00  8.9760e-02  8.3576e-02  2.5231e-02  6.7030e-03  9.7100e-01  5.1758e-01 -6.3285e-01  0:04:28  467

  iter  continuity  x-velocity  y-velocity  z-velocity      energy           k       omega  report-def     time/iter
    34  4.5425e+00  8.7144e-02  9.7301e-02  2.3284e-02  1.0640e-02  1.1702e+00  5.9524e-01 -5.1320e-01  0:04:29  466
    35  4.6724e+00  1.0435e-01  7.0915e-02  2.3452e-02  1.0084e-02  9.7971e-01  5.0569e-01 -2.6744e-01  0:04:30  465
    36  4.8897e+00  1.0113e-01  7.4556e-02  2.3879e-02  1.0415e-02  1.0316e+00  5.3724e-01  8.6301e-01  0:04:29  464
    37  4.4862e+00  9.2194e-02  8.5216e-02  2.6230e-02  1.1915e-02  9.8684e-01  5.0976e-01 -5.3140e-01  0:04:27  463
    38  5.0414e+00  1.0992e-01  9.1498e-02  2.7198e-02  1.1542e-02  1.0519e+00  5.4192e-01  5.5116e-01  0:04:25  462
    39  4.8715e+00  1.0312e-01  9.0674e-02  2.7970e-02  7.9295e-03  1.0123e+00  5.2705e-01  1.8035e-01  0:04:25  461
    40  4.9477e+00  1.0471e-01  9.0091e-02  2.6077e-02  1.4922e-02  1.0145e+00  5.2410e-01  7.4191e-01  0:04:27  460
    41  4.8185e+00  1.0380e-01  9.7642e-02  2.6349e-02  8.6155e-03  9.9152e-01  5.0897e-01  1.7085e-01  0:04:25  459
    42  5.1221e+00  1.0368e-01  9.2805e-02  2.7375e-02  1.2397e-02  9.9165e-01  5.1468e-01  7.0880e-01  0:04:23  458
    43  5.1486e+00  9.7146e-02  9.3383e-02  2.5525e-02  8.3684e-03  1.0639e+00  5.6042e-01  6.5991e-01  0:04:21  457
    44  5.1449e+00  9.5565e-02  1.0413e-01  2.7576e-02  9.9207e-03  1.0484e+00  5.5447e-01  9.5816e-01  0:04:21  456

  iter  continuity  x-velocity  y-velocity  z-velocity      energy           k       omega  report-def     time/iter
    45  4.8743e+00  8.5021e-02  9.2735e-02  2.5908e-02  7.7014e-03  9.7481e-01  5.0172e-01 -4.0289e-01  0:04:21  455
    46  5.9105e+00  1.0222e-01  1.0132e-01  3.2039e-02  1.0959e-02  9.9917e-01  5.2449e-01  4.5772e-01  0:04:21  454
    47  5.5558e+00  9.4411e-02  8.6083e-02  2.6884e-02  1.0612e-02  1.0182e+00  5.2401e-01  4.5062e-04  0:04:20  453
    48  5.9800e+00  1.0140e-01  1.0344e-01  2.8027e-02  1.1543e-02  1.0209e+00  5.2704e-01  5.3930e-01  0:04:19  452
    49  5.8202e+00  9.2904e-02  8.7356e-02  2.5653e-02  1.0944e-02  1.0350e+00  5.5094e-01 -1.5606e-01  0:04:17  451
    50  6.4982e+00  1.0668e-01  9.0555e-02  2.9849e-02  1.1026e-02  1.0014e+00  5.3480e-01 -2.5535e+00  0:04:15  450
    51  6.6825e+00  8.4229e-02  6.0870e-02  2.1652e-02  1.1530e-02  1.0551e+00  5.8203e-01  1.0340e+00  0:04:14  449
    52  7.2685e+00  1.1280e-01  9.4467e-02  2.9192e-02  1.2693e-02  1.0292e+00  5.4594e-01  1.0872e+00  0:04:16  448
    53  7.0388e+00  9.1573e-02  7.5186e-02  2.3816e-02  1.1951e-02  9.7497e-01  5.1751e-01  1.6270e+00  0:04:17  447
    54  7.5394e+00  1.2156e-01  9.2381e-02  3.1865e-02  1.1058e-02  1.0096e+00  5.3593e-01  5.6956e-01  0:04:20  446
    55  7.1103e+00  9.0190e-02  9.2216e-02  2.7078e-02  1.0093e-02  9.5748e-01  5.1159e-01  2.3681e-01  0:04:20  445

  iter  continuity  x-velocity  y-velocity  z-velocity      energy           k       omega  report-def     time/iter
    56  8.0812e+00  1.0675e-01  1.0471e-01  3.0538e-02  2.3232e-02  1.1373e+00  5.8438e-01  9.4629e-01  0:04:18  444
    57  7.4238e+00  1.0567e-01  8.2141e-02  2.8177e-02  2.7329e-02  9.6874e-01  5.1478e-01  4.5771e-01  0:04:16  443
    58  8.3523e+00  1.2944e-01  9.4494e-02  2.8827e-02  1.6894e-02  1.0044e+00  5.2812e-01 -1.0397e-01  0:04:16  442
    59  7.5370e+00  9.8946e-02  7.4025e-02  2.7464e-02  1.0849e-02  1.0705e+00  5.7772e-01  8.4619e-01  0:04:16  441
    60  8.4026e+00  9.8870e-02  1.0339e-01  3.0897e-02  1.2220e-02  1.0379e+00  5.3271e-01  5.9352e-01  0:04:16  440
    61  7.9128e+00  9.4659e-02  8.7918e-02  3.0036e-02  1.0429e-02  9.9017e-01  5.1016e-01 -1.2304e+00  0:04:15  439
    62  8.6515e+00  9.6527e-02  9.1514e-02  3.1353e-02  1.6908e-02  9.8298e-01  5.0671e-01  4.2849e-01  0:04:13  438
    63  8.3115e+00  8.2790e-02  9.3360e-02  2.8405e-02  1.5967e-02  9.5699e-01  5.0724e-01  1.7366e+00  0:04:11  437
    64  8.9466e+00  1.0791e-01  9.5150e-02  2.9583e-02  1.5442e-02  1.2522e+00  6.2133e-01  1.7625e+00  0:04:10  436
    65  8.4750e+00  9.7112e-02  9.2840e-02  2.8518e-02  1.5172e-02  1.0131e+00  5.2144e-01  9.1510e-01  0:04:11  435
    66  9.5588e+00  1.0091e-01  1.0175e-01  3.1806e-02  1.8205e-02  1.0338e+00  5.4224e-01  9.2602e-01  0:04:10  434

  iter  continuity  x-velocity  y-velocity  z-velocity      energy           k       omega  report-def     time/iter
    67  9.2454e+00  9.4913e-02  8.2083e-02  2.7292e-02  1.3986e-02  9.8162e-01  5.0755e-01  3.3959e-01  0:04:09  433
    68  9.6167e+00  1.0170e-01  9.3848e-02  3.0208e-02  2.0712e-02  1.0745e+00  5.4962e-01  5.3623e-01  0:04:07  432
    69  9.1207e+00  1.1073e-01  8.3187e-02  3.0212e-02  1.4071e-02  9.9319e-01  5.0696e-01  2.3891e-01  0:04:06  431
    70  1.0441e+01  9.9261e-02  1.0419e-01  3.2568e-02  2.1933e-02  1.1441e+00  5.7958e-01  8.4509e-01  0:04:07  430
    71  1.0036e+01  8.1734e-02  9.1011e-02  2.7360e-02  2.1333e-02  9.9142e-01  5.0561e-01  1.4441e+00  0:04:08  429
    72  1.0499e+01  1.0424e-01  9.8107e-02  2.9588e-02  1.6707e-02  1.0839e+00  5.5882e-01  1.7883e+00  0:04:07  428
    73  9.6749e+00  7.7286e-02  9.0993e-02  2.7223e-02  1.6341e-02  9.9307e-01  5.1264e-01  2.4765e+00  0:04:05  427
    74  1.1592e+01  1.0475e-01  9.6195e-02  3.5751e-02  1.9631e-02  1.0496e+00  5.3545e-01  1.6864e+00  0:04:03  426
    75  1.0924e+01  8.3061e-02  8.9099e-02  3.0899e-02  1.4385e-02  9.8645e-01  5.0953e-01  1.2283e+00  0:04:04  425
    76  1.2325e+01  1.0321e-01  1.0723e-01  3.3586e-02  2.5084e-02  1.1330e+00  5.6639e-01  1.6610e+00  0:04:05  424
    77  1.0385e+01  7.9605e-02  7.9070e-02  2.8121e-02  1.4686e-02  9.7702e-01  5.0258e-01  2.8000e+00  0:04:05  423

  iter  continuity  x-velocity  y-velocity  z-velocity      energy           k       omega  report-def     time/iter
    78  1.3024e+01  1.0340e-01  1.1460e-01  3.4864e-02  2.8862e-02  1.1953e+00  6.0694e-01  1.2299e+00  0:04:04  422
    79  1.2416e+01  9.8877e-02  8.5607e-02  3.1711e-02  3.4926e-02  9.7887e-01  5.0134e-01  2.9806e+00  0:04:02  421
    80  1.3012e+01  1.0712e-01  8.2620e-02  3.0515e-02  7.9213e-02  1.0756e+00  5.4525e-01  2.9371e+00  0:03:59  420
    81  1.1877e+01  1.1640e-01  7.9262e-02  2.9055e-02  2.7460e-02  1.0570e+00  5.4392e-01  3.8684e+00  0:03:57  419
    82  1.2681e+01  1.0833e-01  8.8936e-02  3.0862e-02  1.7857e-02  1.0119e+00  5.1548e-01 -3.3013e-01  0:03:56  418
    83  1.1997e+01  8.5022e-02  9.2102e-02  3.0867e-02  1.8974e-02  1.0094e+00  5.1430e-01  6.7942e-02  0:03:57  417
    84  1.4395e+01  1.0574e-01  1.1435e-01  3.5297e-02  2.6501e-02  1.0542e+00  5.3654e-01  2.1231e+00  0:03:56  416
    85  1.2188e+01  7.0157e-02  8.5564e-02  2.5329e-02  1.7719e-02  9.9437e-01  5.0891e-01  4.5929e+00  0:03:56  415
    86  1.4175e+01  9.7150e-02  9.9217e-02  3.0711e-02  2.4270e-02  1.1135e+00  5.6872e-01  6.4436e-01  0:03:57  414
    87  1.2648e+01  7.4568e-02  8.9902e-02  2.7632e-02  2.0381e-02  1.0098e+00  5.1664e-01  1.5943e+00  0:03:57  413
    88  1.5075e+01  1.0394e-01  9.7799e-02  3.4047e-02  2.5677e-02  1.0775e+00  5.5597e-01  1.9229e+00  0:03:56  412

  iter  continuity  x-velocity  y-velocity  z-velocity      energy           k       omega  report-def     time/iter
    89  1.3612e+01  8.2517e-02  8.2391e-02  2.8512e-02  1.8125e-02  9.9551e-01  5.1245e-01  3.1789e+00  0:03:55  411
    90  1.5125e+01  8.9289e-02  9.6486e-02  3.0772e-02  2.2922e-02  1.0361e+00  5.2907e-01  1.0721e+00  0:03:53  410
    91  1.4272e+01  9.1777e-02  8.2698e-02  3.1207e-02  2.0166e-02  1.0059e+00  5.1063e-01  6.7082e-01  0:03:53  409
    92  1.6330e+01  9.1413e-02  1.0567e-01  3.3911e-02  2.7307e-02  1.0755e+00  5.4153e-01  1.1133e+00  0:03:55  408
    93  1.4702e+01  6.6590e-02  8.9061e-02  2.8734e-02  1.7590e-02  1.0440e+00  5.3066e-01  1.4005e+00  0:03:55  407
    94  1.6977e+01  9.6791e-02  1.0453e-01  3.3578e-02  2.6528e-02  1.0751e+00  5.4876e-01  1.0257e+00  0:03:54  406
    95  1.5574e+01  7.2088e-02  8.9363e-02  2.8950e-02  2.6795e-02  9.9320e-01  5.0700e-01  2.2095e+00  0:03:52  405
    96  1.7731e+01  1.1110e-01  1.0230e-01  3.6692e-02  3.1966e-02  1.1162e+00  5.5887e-01  2.2633e+00  0:03:51  404
    97  1.6254e+01  8.7489e-02  9.8860e-02  3.0847e-02  2.0475e-02  1.0057e+00  5.1520e-01  4.2399e+00  0:03:51  403
    98  1.7805e+01  1.0175e-01  1.0307e-01  3.3305e-02  2.4803e-02  1.0631e+00  5.4267e-01  3.8213e+00  0:03:51  402
    99  1.6751e+01  8.4232e-02  8.4121e-02  3.0603e-02  2.3228e-02  1.0201e+00  5.2187e-01  5.6108e+00  0:03:50  401

  iter  continuity  x-velocity  y-velocity  z-velocity      energy           k       omega  report-def     time/iter
   100  1.8896e+01  9.9576e-02  1.0130e-01  3.3045e-02  2.6928e-02  1.0432e+00  5.3333e-01  9.6033e+00  0:03:48  400
   101  1.6709e+01  7.2219e-02  8.5448e-02  2.9446e-02  1.8975e-02  1.0090e+00  5.1747e-01  7.0254e+00  0:03:47  399
   102  2.0273e+01  1.0195e-01  9.7378e-02  3.3718e-02  2.6436e-02  1.0882e+00  5.5146e-01  6.7563e+00  0:03:47  398
   103  1.8371e+01  6.8664e-02  8.8018e-02  2.7947e-02  2.6126e-02  1.0158e+00  5.1953e-01  8.9536e+00  0:03:48  397
   104  2.0357e+01  1.0117e-01  8.3737e-02  3.2492e-02  2.6170e-02  1.0835e+00  5.5508e-01  1.1478e+01  0:03:49  396
   105  1.9398e+01  7.4934e-02  8.7650e-02  2.9181e-02  2.1851e-02  1.0439e+00  5.4095e-01  4.5244e+00  0:03:48  395
   106  2.1424e+01  8.4267e-02  9.2174e-02  3.0639e-02  3.2188e-02  1.0631e+00  5.3842e-01  4.7979e+00  0:03:46  394
   107  2.0846e+01  8.3800e-02  7.6600e-02  2.9178e-02  2.6466e-02  1.0200e+00  5.2230e-01  4.6629e+00  0:03:45  393
   108  2.2824e+01  1.0303e-01  9.1836e-02  3.4831e-02  3.2889e-02  1.0499e+00  5.3237e-01  6.1838e+00  0:03:45  392
   109  2.1480e+01  7.7866e-02  8.7347e-02  3.0013e-02  2.3669e-02  1.0139e+00  5.1780e-01 -1.9323e+00  0:03:46  391
   110  2.3096e+01  8.7057e-02  1.0232e-01  3.2779e-02  2.9444e-02  1.0728e+00  5.4723e-01 -4.3118e+00  0:03:46  390

  iter  continuity  x-velocity  y-velocity  z-velocity      energy           k       omega  report-def     time/iter
   111  2.2938e+01  9.0534e-02  9.8001e-02  3.2169e-02  2.6959e-02  1.0298e+00  5.2554e-01 -1.9812e+00  0:03:45  389
   112  2.3896e+01  1.0267e-01  9.7724e-02  3.6668e-02  3.1290e-02  1.0260e+00  5.2297e-01 -2.4161e-01  0:03:43  388
   113  2.3248e+01  9.3344e-02  9.9035e-02  3.2714e-02  2.8673e-02  1.0272e+00  5.2375e-01 -5.7039e+00  0:03:43  387
   114  2.3696e+01  8.2735e-02  8.6244e-02  2.9603e-02  2.9678e-02  1.0212e+00  5.1664e-01 -6.3687e+00  0:03:43  386
   115  2.4606e+01  9.9389e-02  8.9907e-02  3.2512e-02  2.9464e-02  1.0822e+00  5.4344e-01 -9.1751e-01  0:03:44  385
   116  2.4766e+01  9.2834e-02  9.2208e-02  3.1672e-02  3.4418e-02  1.0131e+00  5.1227e-01  2.6789e+00  0:03:44  384
   117  2.5060e+01  8.6138e-02  9.2937e-02  2.9473e-02  3.9680e-02  1.0625e+00  5.3786e-01 -2.5208e-01  0:03:43  383
   118  2.6042e+01  7.6101e-02  1.0045e-01  3.1502e-02  3.1934e-02  1.0525e+00  5.3048e-01 -1.9012e+00  0:03:41  382
   119  2.8251e+01  9.1818e-02  8.9393e-02  3.2291e-02  3.1043e-02  1.0185e+00  5.1979e-01  4.8657e+00  0:03:40  381
   120  2.5741e+01  8.6792e-02  8.8531e-02  3.1933e-02  3.0922e-02  1.0529e+00  5.4059e-01  4.7312e+00  0:03:38  380
   121  2.7600e+01  9.1642e-02  9.6793e-02  3.5272e-02  4.0240e-02  1.0495e+00  5.3441e-01  1.9923e+00  0:03:37  379

  iter  continuity  x-velocity  y-velocity  z-velocity      energy           k       omega  report-def     time/iter
   122  2.7820e+01  8.8467e-02  8.1820e-02  3.0998e-02  2.5060e-02  1.0254e+00  5.1805e-01  5.0134e+00  0:03:37  378
   123  2.8461e+01  9.1530e-02  9.2732e-02  3.1112e-02  3.2679e-02  1.0269e+00  5.2108e-01  1.3413e+01  0:03:36  377
   124  2.7141e+01  9.0584e-02  1.0167e-01  3.0772e-02  2.7765e-02  1.0476e+00  5.2952e-01  1.2791e+01  0:03:35  376
   125  2.8277e+01  9.1930e-02  9.8999e-02  3.2774e-02  2.8893e-02  1.0457e+00  5.2972e-01  1.2139e+01  0:03:36  375
   126  3.0561e+01  8.4181e-02  1.0104e-01  3.0936e-02  3.2592e-02  1.0892e+00  5.5510e-01  4.5993e+00  0:03:35  374
   127  3.0355e+01  9.7881e-02  8.9194e-02  3.1418e-02  3.0065e-02  1.0288e+00  5.2310e-01  5.3416e+00  0:03:33  373
   128  2.9420e+01  8.8623e-02  1.0182e-01  3.3220e-02  3.3423e-02  1.0389e+00  5.2907e-01  3.6503e+00  0:03:33  372
   129  3.0144e+01  9.6989e-02  1.0181e-01  3.3813e-02  3.5498e-02  1.0511e+00  5.3496e-01  1.4856e-01  0:03:34  371
   130  3.3403e+01  9.7523e-02  9.9002e-02  3.4301e-02  3.9469e-02  1.0364e+00  5.2658e-01 -2.8417e+00  0:03:35  370
   131  3.2600e+01  1.0266e-01  9.8481e-02  3.3693e-02  2.5824e-02  1.0036e+00  5.0691e-01  1.4174e+00  0:03:34  369
   132  3.2460e+01  9.3017e-02  1.0578e-01  3.5169e-02  3.9570e-02  1.0888e+00  5.4018e-01  2.4167e-02  0:03:32  368

  iter  continuity  x-velocity  y-velocity  z-velocity      energy           k       omega  report-def     time/iter
   133  3.2528e+01  9.1649e-02  1.0075e-01  3.1675e-02  4.7024e-02  1.0677e+00  5.4502e-01 -3.7644e+00  0:03:31  367
   134  3.3314e+01  8.1079e-02  9.5058e-02  3.0921e-02  3.5731e-02  1.0434e+00  5.3159e-01 -5.6030e+00  0:03:31  366
   135  3.4438e+01  1.0198e-01  8.8562e-02  3.3055e-02  2.8078e-02  1.0303e+00  5.2659e-01 -5.6552e+00  0:03:31  365
   136  3.2002e+01  9.0344e-02  9.4213e-02  3.3347e-02  3.3024e-02  1.0256e+00  5.2417e-01 -5.0274e+00  0:03:31  364
   137  3.3516e+01  8.9779e-02  1.0094e-01  3.2473e-02  3.1169e-02  1.0264e+00  5.1840e-01 -6.8064e+00  0:03:30  363
   138  3.7198e+01  9.1465e-02  9.9441e-02  3.5524e-02  5.1197e-02  1.0437e+00  5.2835e-01 -3.1017e+00  0:03:29  362
   139  3.4082e+01  9.8457e-02  8.0027e-02  2.9188e-02  3.1651e-02  1.0380e+00  5.2587e-01  2.4010e+00  0:03:28  361
   140  3.6698e+01  9.5458e-02  1.1619e-01  3.8356e-02  3.9709e-02  1.0807e+00  5.5663e-01 -6.8805e-01  0:03:28  360
   141  3.5756e+01  9.1655e-02  8.5946e-02  3.2079e-02  3.1251e-02  1.0093e+00  5.1189e-01 -5.5422e+00  0:03:30  359
   142  3.7248e+01  8.4739e-02  1.0216e-01  3.4580e-02  3.3402e-02  1.0580e+00  5.3116e-01 -6.7461e+00  0:03:36  358
   143  3.6370e+01  9.8139e-02  9.4320e-02  3.3468e-02  3.1459e-02  1.0377e+00  5.2587e-01 -3.8099e+00  0:03:34  357

  iter  continuity  x-velocity  y-velocity  z-velocity      energy           k       omega  report-def     time/iter
   144  3.6287e+01  9.6065e-02  1.0531e-01  3.6556e-02  3.7694e-02  1.0294e+00  5.2075e-01 -5.0132e+00  0:03:31  356
   145  3.5031e+01  9.7393e-02  8.9669e-02  3.3585e-02  2.9914e-02  1.0655e+00  5.3994e-01 -7.1585e+00  0:03:28  355
   146  3.8575e+01  1.0169e-01  1.0738e-01  3.8999e-02  3.3406e-02  1.0569e+00  5.3365e-01 -9.3690e+00  0:03:46  354
   147  3.7500e+01  8.7097e-02  9.6262e-02  3.1978e-02  3.3236e-02  1.0076e+00  5.1144e-01  3.0786e-01  0:03:40  353
   148  3.9490e+01  9.8533e-02  1.1815e-01  3.6176e-02  1.2067e-01  1.1287e+00  5.6246e-01  1.5161e+00  0:03:37  352
   149  3.6757e+01  1.2224e-01  9.0936e-02  3.3064e-02  4.6159e-02  1.0236e+00  5.1919e-01 -3.9550e+00  0:03:34  351
   150  4.0233e+01  9.6453e-02  1.0971e-01  3.7106e-02  2.5243e-02  1.0314e+00  5.2258e-01 -9.1508e+00  0:03:32  350
   151  3.8576e+01  1.0198e-01  9.3003e-02  3.5749e-02  5.1489e-02  1.0067e+00  5.1267e-01  3.1258e+00  0:03:29  349
   152  4.0707e+01  1.1624e-01  1.0124e-01  3.5125e-02  4.5608e-02  1.0684e+00  5.3392e-01  1.2076e+00  0:03:27  348
   153  3.7327e+01  9.2179e-02  8.9606e-02  3.0348e-02  5.5714e-02  1.0651e+00  5.3806e-01 -4.9987e+00  0:03:24  347
   154  4.1580e+01  1.2780e-01  9.9330e-02  3.7147e-02  3.9849e-02  1.0811e+00  5.5082e-01 -1.0992e+01  0:03:22  346

  iter  continuity  x-velocity  y-velocity  z-velocity      energy           k       omega  report-def     time/iter
   155  3.7538e+01  9.6445e-02  8.9612e-02  3.1738e-02  3.0814e-02  1.0146e+00  5.1906e-01 -5.7389e+00  0:03:15  345
   156  4.3296e+01  1.1461e-01  1.1594e-01  4.0511e-02  3.1713e-02  1.0437e+00  5.3082e-01 -2.7779e+00  0:03:15  344
   157  3.6929e+01  9.4474e-02  1.0139e-01  3.8258e-02  3.8441e-02  1.0205e+00  5.1716e-01 -9.5359e+00  0:03:15  343
   158  4.4213e+01  1.1727e-01  1.1886e-01  4.2669e-02  3.9895e-02  1.0468e+00  5.2938e-01 -2.1040e+01  0:03:15  342
   159  3.7800e+01  9.1578e-02  8.1867e-02  3.1540e-02  2.8457e-02  1.0333e+00  5.2059e-01 -1.9243e+01  0:03:15  341
   160  4.4430e+01  1.0932e-01  1.0586e-01  3.8465e-02  3.6329e-02  1.0719e+00  5.3749e-01 -1.9142e+01  0:03:15  340
   161  3.7044e+01  8.3611e-02  8.4760e-02  3.0441e-02  2.2605e-02  1.0121e+00  5.1495e-01 -2.0805e+01  0:03:14  339
   162  4.4532e+01  1.0453e-01  1.0648e-01  3.6921e-02  3.8390e-02  1.1642e+00  5.8491e-01 -3.1703e+01  0:03:13  338
   163  3.9554e+01  9.0826e-02  8.6110e-02  3.2058e-02  2.3892e-02  1.0004e+00  5.0557e-01 -2.1741e+01  0:03:11  337
   164  4.6621e+01  1.0810e-01  1.0945e-01  3.8923e-02  3.2844e-02  1.1284e+00  5.5854e-01 -1.5768e+01  0:03:10  336
   165  4.0277e+01  8.8779e-02  9.6895e-02  3.4111e-02  5.5565e-02  1.0002e+00  5.0627e-01 -1.4137e+01  0:03:11  335

  iter  continuity  x-velocity  y-velocity  z-velocity      energy           k       omega  report-def     time/iter
   166  4.6410e+01  1.3284e-01  1.0043e-01  3.6697e-02  3.5464e-02  1.0615e+00  5.2973e-01 -2.2753e+01  0:03:11  334
   167  4.0877e+01  9.8389e-02  8.8541e-02  3.4338e-02  3.8201e-02  1.0512e+00  5.2906e-01 -1.9716e+01  0:03:11  333
   168  4.6668e+01  1.0545e-01  9.2992e-02  3.6526e-02  3.7455e-02  1.0710e+00  5.3928e-01 -9.5313e+00  0:03:10  332
   169  4.3752e+01  9.4110e-02  9.6965e-02  3.3887e-02  5.3130e-02  1.0211e+00  5.1664e-01  1.2619e+00  0:03:09  331
   170  4.9145e+01  1.1547e-01  9.7234e-02  3.5288e-02  4.6658e-02  1.0761e+00  5.4255e-01 -1.1610e+00  0:03:08  330
   171  4.2415e+01  8.5670e-02  8.7667e-02  3.1021e-02  4.0684e-02  1.0238e+00  5.2069e-01  4.3179e+00  0:03:08  329
   172  4.8436e+01  1.1794e-01  1.0193e-01  3.7452e-02  3.8573e-02  1.0862e+00  5.5457e-01  3.8566e+00  0:03:10  328
   173  4.4720e+01  8.9003e-02  9.4254e-02  3.1153e-02  3.7516e-02  1.0178e+00  5.1638e-01 -8.4727e-01  0:03:09  327
   174  5.2732e+01  1.2705e-01  1.0192e-01  4.0093e-02  3.3807e-02  1.0451e+00  5.2608e-01 -7.9773e+00  0:03:08  326
   175  4.1168e+01  8.7164e-02  8.9690e-02  3.2491e-02  3.3565e-02  1.0094e+00  5.0703e-01 -6.6647e+00  0:03:06  325
   176  5.1021e+01  1.2548e-01  1.2285e-01  4.4121e-02  4.4036e-02  1.1237e+00  5.6163e-01 -3.2234e+00  0:03:05  324

  iter  continuity  x-velocity  y-velocity  z-velocity      energy           k       omega  report-def     time/iter
   177  4.5463e+01  8.9696e-02  9.8831e-02  3.4262e-02  3.3018e-02  1.0135e+00  5.1233e-01 -6.6269e+00  0:03:06  323
   178  5.0849e+01  1.1519e-01  1.0392e-01  3.7038e-02  3.8078e-02  1.0436e+00  5.2748e-01 -1.7844e+01  0:03:06  322
   179  4.3830e+01  8.7666e-02  9.9430e-02  3.4258e-02  3.2143e-02  1.0244e+00  5.1840e-01 -1.8189e+01  0:03:00  321
   180  5.0890e+01  1.0575e-01  1.0937e-01  4.0371e-02  3.2729e-02  1.0606e+00  5.3272e-01 -1.7956e+01  0:02:59  320
   181  4.7467e+01  8.8969e-02  9.2743e-02  3.3492e-02  4.4730e-02  1.0174e+00  5.1415e-01 -1.3110e+01  0:03:00  319
   182  5.3573e+01  1.0908e-01  1.0367e-01  3.6017e-02  5.4814e-02  1.0555e+00  5.2916e-01 -2.7037e+01  0:03:01  318
   183  4.6018e+01  9.6549e-02  9.4834e-02  3.1339e-02  4.0707e-02  1.0346e+00  5.2335e-01 -3.4959e+01  0:02:56  317
   184  5.3578e+01  1.1315e-01  1.0647e-01  3.6049e-02  2.8273e-02  1.0746e+00  5.4303e-01 -2.6231e+01  0:02:57  316
   185  4.6236e+01  9.1067e-02  9.2409e-02  3.4718e-02  2.9764e-02  1.0216e+00  5.1621e-01 -1.3740e+01  0:02:52  315
   186  5.3224e+01  1.1141e-01  1.0251e-01  3.8195e-02  3.3722e-02  1.0770e+00  5.4399e-01 -1.8208e+01  0:02:54  314
   187  4.8496e+01  9.8658e-02  8.0667e-02  3.7365e-02  3.0695e-02  1.0330e+00  5.2209e-01 -1.9374e+01  0:02:56  313

  iter  continuity  x-velocity  y-velocity  z-velocity      energy           k       omega  report-def     time/iter
   188  5.4551e+01  9.6465e-02  9.3194e-02  3.4848e-02  3.9910e-02  1.0727e+00  5.4113e-01 -8.8525e+00  0:02:56  312
   189  5.1015e+01  8.3642e-02  8.8087e-02  3.1447e-02  4.5276e-02  1.0313e+00  5.2596e-01  1.1447e+01  0:02:57  311
   190  5.6820e+01  9.7524e-02  9.0451e-02  3.2631e-02  3.2845e-02  1.0312e+00  5.2363e-01 -2.4986e+00  0:02:56  310
   191  5.2332e+01  7.7790e-02  7.9725e-02  3.2514e-02  3.3903e-02  1.0220e+00  5.1923e-01 -4.1790e+00  0:02:52  309
   192  6.0386e+01  9.1818e-02  1.0748e-01  3.9811e-02  2.8930e-02  1.0363e+00  5.2053e-01 -1.9029e+00  0:02:52  308
   193  5.6425e+01  7.8529e-02  8.2226e-02  3.2704e-02  3.7621e-02  1.0219e+00  5.1482e-01  1.0370e+01  0:02:53  307
   194  6.1002e+01  8.8888e-02  6.9429e-02  2.7525e-02  4.2250e-02  1.0861e+00  5.4210e-01 -4.7257e+00  0:02:54  306
   195  6.2219e+01  7.9879e-02  8.0808e-02  3.1951e-02  3.5193e-02  1.0292e+00  5.2243e-01 -1.8992e+01  0:02:54  305
   196  6.2777e+01  7.8829e-02  8.8376e-02  3.1425e-02  3.3023e-02  1.0650e+00  5.4093e-01 -1.0721e+01  0:02:53  304
   197  6.0086e+01  8.6011e-02  8.7291e-02  3.4270e-02  2.7349e-02  1.0333e+00  5.2604e-01 -5.4286e-01  0:02:52  303
   198  6.5754e+01  8.6866e-02  8.3152e-02  3.4848e-02  3.4828e-02  1.0156e+00  5.1285e-01 -1.3802e+01  0:02:51  302

  iter  continuity  x-velocity  y-velocity  z-velocity      energy           k       omega  report-def     time/iter
   199  6.6326e+01  9.4539e-02  8.5406e-02  3.5259e-02  3.3855e-02  1.0411e+00  5.2544e-01 -1.8674e+01  0:02:46  301
   200  6.9791e+01  9.8091e-02  9.9604e-02  3.7198e-02  3.1465e-02  1.0325e+00  5.1791e-01 -2.1036e+01  0:02:47  300
   201  6.6813e+01  9.3149e-02  7.9710e-02  3.5501e-02  3.5288e-02  1.0317e+00  5.1836e-01 -1.2617e+01  0:02:48  299
   202  7.0850e+01  9.3932e-02  8.6949e-02  3.1993e-02  4.5758e-02  1.0600e+00  5.3529e-01 -1.9972e+01  0:02:45  298
   203  7.3180e+01  9.2167e-02  8.9670e-02  3.3112e-02  4.5819e-02  1.0186e+00  5.1323e-01 -2.9291e+01  0:02:45  297
   204  7.2026e+01  8.7839e-02  9.2487e-02  3.0418e-02  5.5433e-02  1.0644e+00  5.3366e-01 -3.0293e+01  0:02:40  296
   205  7.3283e+01  1.0344e-01  9.3114e-02  3.4313e-02  3.1753e-02  1.0215e+00  5.1570e-01 -8.5769e+00  0:02:38  295
   206  7.3107e+01  9.3165e-02  9.2374e-02  3.2617e-02  3.1447e-02  1.0579e+00  5.3193e-01 -1.3066e+01  0:02:40  294
   207  7.2827e+01  9.1948e-02  9.0466e-02  3.7525e-02  3.8074e-02  1.0302e+00  5.2120e-01 -1.0536e+01  0:02:37  293
   208  7.9922e+01  9.4451e-02  9.6482e-02  3.2321e-02  3.5230e-02  1.0359e+00  5.1998e-01 -1.8732e+01  0:02:38  292
   209  7.8079e+01  8.5503e-02  7.9192e-02  3.2873e-02  3.0894e-02  1.0506e+00  5.2940e-01 -9.5740e+00  0:02:39  291

  iter  continuity  x-velocity  y-velocity  z-velocity      energy           k       omega  report-def     time/iter
   210  7.4974e+01  8.6708e-02  7.3424e-02  3.0523e-02  3.6679e-02  1.0291e+00  5.2168e-01 -8.6850e+00  0:02:37  290
   211  8.2698e+01  8.2377e-02  8.9280e-02  3.3720e-02  3.3296e-02  1.0629e+00  5.3762e-01 -2.9695e+01  0:02:39  289
   212  8.0297e+01  7.9917e-02  7.7589e-02  3.1064e-02  3.0492e-02  1.0439e+00  5.2964e-01 -4.3693e+01  0:02:35  288
   213  8.8661e+01  8.6666e-02  8.2053e-02  3.5264e-02  2.8475e-02  1.0471e+00  5.3500e-01 -1.9215e+01  0:02:36  287
   214  8.3662e+01  8.0268e-02  7.0256e-02  3.0183e-02  2.6354e-02  1.0075e+00  5.0770e-01 -2.2829e+01  0:02:33  286
   215  9.3059e+01  7.9663e-02  9.1508e-02  3.6532e-02  3.0121e-02  1.0577e+00  5.2832e-01 -4.8667e+01  0:02:36  285
   216  8.7467e+01  6.8207e-02  7.4344e-02  2.8959e-02  2.7984e-02  1.0372e+00  5.2556e-01 -4.9873e+01  0:02:32  284
   217  1.0248e+02  7.7939e-02  7.5209e-02  3.1503e-02  3.1554e-02  1.0578e+00  5.3043e-01 -2.5119e+01  0:02:33  283
   218  9.2772e+01  6.9270e-02  6.2902e-02  2.7540e-02  4.1733e-02  1.0545e+00  5.3853e-01 -2.0640e+01  0:02:31  282
   219  1.1175e+02  8.3305e-02  7.9224e-02  3.4903e-02  4.0949e-02  1.0440e+00  5.2714e-01 -3.5533e+01  0:02:29  281
   220  1.0613e+02  6.5232e-02  7.5560e-02  2.7726e-02  2.7009e-02  1.0324e+00  5.2355e-01 -2.8092e+01  0:02:27  280

  iter  continuity  x-velocity  y-velocity  z-velocity      energy           k       omega  report-def     time/iter
   221  1.2788e+02  6.6790e-02  7.2784e-02  3.2371e-02  3.4846e-02  1.0883e+00  5.4923e-01 -4.8026e+00  0:02:28  279
   222  1.0894e+02  6.3411e-02  4.9207e-02  2.4352e-02  2.4112e-02  1.0268e+00  5.2063e-01 -1.5794e+00  0:02:26  278
   223  1.3508e+02  5.9710e-02  6.6255e-02  2.9251e-02  3.6325e-02  1.1093e+00  5.6363e-01  6.3481e+00  0:02:25  277
   224  1.3242e+02  4.9219e-02  5.5285e-02  2.3696e-02  2.4167e-02  1.0244e+00  5.2134e-01  4.2772e+01  0:02:28  276
   225  1.5353e+02  4.8950e-02  4.6775e-02  2.7208e-02  3.1418e-02  1.0358e+00  5.2002e-01  7.1954e+01  0:02:25  275
   226  1.4568e+02  4.9807e-02  3.7177e-02  2.1215e-02  2.6127e-02  1.0437e+00  5.3024e-01  1.6794e+02  0:02:23  274
   227  1.7193e+02  4.2178e-02  4.4788e-02  2.3324e-02  3.2069e-02  1.0540e+00  5.2748e-01  2.8081e+02  0:02:22  273
   228  1.8073e+02  3.7892e-02  4.1722e-02  2.1092e-02  2.6578e-02  1.0031e+00  5.0752e-01  3.6965e+02  0:02:21  272
   229  2.1429e+02  3.9155e-02  3.9277e-02  2.3708e-02  3.6254e-02  1.0289e+00  5.2310e-01  4.2599e+02  0:02:22  271
   230  2.1526e+02  3.9678e-02  3.2769e-02  2.4678e-02  1.9809e-02  9.8875e-01  4.9849e-01  5.1200e+02  0:02:20  270
   231  2.5511e+02  2.7082e-02  3.0823e-02  2.1925e-02  2.2793e-02  9.8599e-01  4.9572e-01  5.2188e+02  0:02:19  269

  iter  continuity  x-velocity  y-velocity  z-velocity      energy           k       omega  report-def     time/iter
   232  2.9114e+02  2.8285e-02  2.8020e-02  2.2221e-02  2.2357e-02  9.1182e-01  4.7528e-01  4.4696e+02  0:02:18  268
   233  3.5033e+02  2.8032e-02  2.8581e-02  2.3423e-02  2.2002e-02  8.9180e-01  4.5517e-01  2.6918e+02  0:02:17  267
   234  4.2309e+02  2.5787e-02  2.7668e-02  2.4560e-02  2.3047e-02  8.1224e-01  4.3084e-01  5.9511e+01  0:02:15  266
   235  5.2259e+02  2.6266e-02  2.8003e-02  2.7866e-02  1.9614e-02  7.9842e-01  4.1797e-01 -2.0178e+02  0:02:14  265
   236  6.7682e+02  2.5067e-02  2.3291e-02  2.8959e-02  2.0203e-02  7.9565e-01  4.1413e-01 -5.1002e+02  0:02:13  264
   237  8.7379e+02  2.3376e-02  2.2737e-02  2.8074e-02  1.7424e-02  7.6977e-01  3.9791e-01 -9.1858e+02  0:02:13  263
   238  1.1876e+03  1.9301e-02  1.8796e-02  2.6026e-02  1.6524e-02  8.0016e-01  4.2220e-01 -1.5210e+03  0:02:13  262
   239  1.6312e+03  1.6904e-02  1.6169e-02  2.2260e-02  1.4326e-02  7.7726e-01  3.9650e-01 -2.4135e+03  0:02:12  261
   240  2.3051e+03  1.4389e-02  1.3863e-02  1.8877e-02  1.2493e-02  7.4348e-01  4.0049e-01 -3.4209e+03  0:02:11  260
   241  3.2439e+03  1.3974e-02  1.2980e-02  1.7230e-02  1.1840e-02  8.0566e-01  4.2615e-01 -4.2427e+03  0:02:11  259
   242  4.4194e+03  1.4670e-02  1.3304e-02  1.6774e-02  1.1935e-02  8.3879e-01  4.2734e-01 -4.4927e+03  0:02:11  258

  iter  continuity  x-velocity  y-velocity  z-velocity      energy           k       omega  report-def     time/iter
   243  6.0647e+03  1.4913e-02  1.3378e-02  1.7097e-02  1.2486e-02  7.6058e-01  3.8613e-01 -3.1370e+03  0:02:09  257

 turbulent viscosity limited to viscosity ratio of 1.000000e+05 in 1 cells 
   244  8.3452e+03  1.4956e-02  1.4176e-02  1.8636e-02  1.4128e-02  7.5594e-01  4.1425e-01  3.8696e+02  0:02:09  256

 turbulent viscosity limited to viscosity ratio of 1.000000e+05 in 70 cells 
   245  1.1634e+04  1.5273e-02  1.6506e-02  2.1197e-02  1.4808e-02  7.8217e-01  4.1211e-01  7.0154e+03  0:02:10  255

 turbulent viscosity limited to viscosity ratio of 1.000000e+05 in 206 cells 
   246  1.6424e+04  1.6279e-02  1.6903e-02  2.2822e-02  1.4937e-02  8.1828e-01  4.3877e-01  1.8322e+04  0:02:09  254

 turbulent viscosity limited to viscosity ratio of 1.000000e+05 in 1213 cells 
   247  2.4068e+04  1.8284e-02  1.8108e-02  2.2859e-02  1.5140e-02  8.0741e-01  4.2390e-01  3.3069e+04  0:02:08  253

 turbulent viscosity limited to viscosity ratio of 1.000000e+05 in 9300 cells 
   248  3.4743e+04  1.8623e-02  1.9118e-02  2.1894e-02  1.2714e-02  7.9914e-01  4.0596e-01  5.3132e+04  0:02:07  252

 turbulent viscosity limited to viscosity ratio of 1.000000e+05 in 29038 cells 
   249  4.9699e+04  1.7656e-02  1.8731e-02  2.0454e-02  1.1582e-02  7.8748e-01  3.9598e-01  7.8707e+04  0:02:08  251

 turbulent viscosity limited to viscosity ratio of 1.000000e+05 in 42921 cells 
   250  7.0623e+04  1.6336e-02  1.9066e-02  1.9611e-02  1.1007e-02  6.9171e-01  3.6079e-01  1.0536e+05  0:02:07  250

 turbulent viscosity limited to viscosity ratio of 1.000000e+05 in 54229 cells 
   251  9.9099e+04  1.5821e-02  1.8136e-02  1.9059e-02  1.0715e-02  7.3689e-01  3.7870e-01  1.2224e+05  0:02:07  249

 turbulent viscosity limited to viscosity ratio of 1.000000e+05 in 63828 cells 
   252  1.4000e+05  1.6370e-02  1.6463e-02  1.8837e-02  1.0931e-02  8.4151e-01  4.2840e-01  1.1602e+05  0:02:07  248

 turbulent viscosity limited to viscosity ratio of 1.000000e+05 in 72051 cells 
   253  2.0014e+05  1.6397e-02  1.5647e-02  1.8780e-02  1.0577e-02  9.4671e-01  4.7550e-01  8.1069e+04  0:02:07  247

 turbulent viscosity limited to viscosity ratio of 1.000000e+05 in 78638 cells 

  iter  continuity  x-velocity  y-velocity  z-velocity      energy           k       omega  report-def     time/iter
   254  2.8882e+05  1.5285e-02  1.6554e-02  1.8286e-02  1.0568e-02  8.7818e-01  4.5200e-01  3.7511e+03  0:02:06  246

 turbulent viscosity limited to viscosity ratio of 1.000000e+05 in 83391 cells 
   255  4.1576e+05  1.4230e-02  1.7285e-02  1.7727e-02  1.0357e-02  9.2290e-01  4.5876e-01 -1.2627e+05  0:02:05  245

 turbulent viscosity limited to viscosity ratio of 1.000000e+05 in 88368 cells 
   256  5.9343e+05  1.4418e-02  1.6304e-02  1.6944e-02  9.3098e-03  8.8492e-01  4.4780e-01 -3.1342e+05  0:02:05  244

 turbulent viscosity limited to viscosity ratio of 1.000000e+05 in 94823 cells 
   257  8.3773e+05  1.4970e-02  1.5370e-02  1.6403e-02  1.0194e-02  9.3134e-01  4.7106e-01 -4.9495e+05  0:02:09  243

 turbulent viscosity limited to viscosity ratio of 1.000000e+05 in 97509 cells 
   258  1.1377e+06  1.5541e-02  1.6443e-02  1.7404e-02  9.4049e-03  8.3969e-01  4.3002e-01 -6.2556e+05  0:02:09  242

 turbulent viscosity limited to viscosity ratio of 1.000000e+05 in 98947 cells 
   259  1.6488e+06  1.3410e-02  1.4594e-02  1.6411e-02  9.4487e-03  7.9988e-01  4.3027e-01 -8.2823e+05  0:02:07  241

 turbulent viscosity limited to viscosity ratio of 1.000000e+05 in 99118 cells 
   260  2.4123e+06  1.4157e-02  1.6214e-02  1.6882e-02  1.0479e-02  8.2660e-01  4.4546e-01 -1.1248e+06  0:02:06  240

 turbulent viscosity limited to viscosity ratio of 1.000000e+05 in 99207 cells 
   261  3.4371e+06  1.5094e-02  1.8280e-02  1.6547e-02  8.8279e-03  7.4359e-01  3.7815e-01 -1.4744e+06  0:02:06  239

 turbulent viscosity limited to viscosity ratio of 1.000000e+05 in 99205 cells 
   262  5.0437e+06  1.4209e-02  1.6806e-02  1.6341e-02  8.7460e-03  8.2598e-01  4.3025e-01 -2.0395e+06  0:02:08  238

 turbulent viscosity limited to viscosity ratio of 1.000000e+05 in 99125 cells 
   263  7.1406e+06  1.5474e-02  1.6864e-02  1.7595e-02  8.8532e-03  7.8314e-01  3.9358e-01 -2.5588e+06  0:02:06  237

 absolute pressure limited to 5.000000e+10 in 225 cells on zone 14422 

 turbulent viscosity limited to viscosity ratio of 1.000000e+05 in 98991 cells 
   264  1.0513e+07  1.4042e-02  1.5243e-02  1.6361e-02  9.0950e-03  6.0191e-01  3.8242e-01 -3.1486e+06  0:02:08  236

 absolute pressure limited to 5.000000e+10 in 104580 cells on zone 14422 

 turbulent viscosity limited to viscosity ratio of 1.000000e+05 in 98820 cells 

  iter  continuity  x-velocity  y-velocity  z-velocity      energy           k       omega  report-def     time/iter
   265  1.4690e+07  1.5456e-02  1.7293e-02  1.8291e-02  9.0702e-03  6.8979e-01  3.7135e-01 -8.1694e+04  0:02:10  235

 absolute pressure limited to 5.000000e+10 in 114611 cells on zone 14422 

 turbulent viscosity limited to viscosity ratio of 1.000000e+05 in 98228 cells 
   266  1.9441e+07  1.4525e-02  1.8216e-02  2.6951e-02  1.4336e-02  8.6263e-01  4.2956e-01 -9.1122e+04  0:02:12  234

 absolute pressure limited to 5.000000e+10 in 114740 cells on zone 14422 

 turbulent viscosity limited to viscosity ratio of 1.000000e+05 in 97565 cells 
   267  1.7109e+07  1.5799e-02  1.9550e-02  3.8207e-02  1.6870e-02  9.7353e-01  4.8211e-01 -9.3982e+04  0:02:09  233

 absolute pressure limited to 5.000000e+10 in 114712 cells on zone 14422 

 turbulent viscosity limited to viscosity ratio of 1.000000e+05 in 97052 cells 
   268  1.4096e+07  1.7090e-02  2.0046e-02  4.0915e-02  2.4415e-02  9.5349e-01  4.8073e-01 -1.0713e+05  0:02:06  232

 absolute pressure limited to 5.000000e+10 in 114627 cells on zone 14422 

 turbulent viscosity limited to viscosity ratio of 1.000000e+05 in 96901 cells 
   269  1.3564e+07  2.6981e-02  2.9445e-02  5.6156e-02  3.5478e-02  1.0102e+00  5.0121e-01 -1.2415e+05  0:02:04  231

 absolute pressure limited to 5.000000e+10 in 114661 cells on zone 14422 

 turbulent viscosity limited to viscosity ratio of 1.000000e+05 in 96634 cells 
   270  1.3234e+07  4.3661e-02  4.9468e-02  6.3190e-02  3.6352e-02  9.9918e-01  4.9922e-01 -8.4903e+04  0:02:02  230

 absolute pressure limited to 5.000000e+10 in 114685 cells on zone 14422 

 turbulent viscosity limited to viscosity ratio of 1.000000e+05 in 96615 cells 
   271  1.2923e+07  4.2949e-02  5.5496e-02  5.6467e-02  3.3219e-02  1.0018e+00  4.9982e-01 -4.2678e+04  0:02:01  229

 absolute pressure limited to 5.000000e+10 in 114656 cells on zone 14422 

 turbulent viscosity limited to viscosity ratio of 1.000000e+05 in 96226 cells 
   272  1.3311e+07  3.9182e-02  4.9872e-02  5.5956e-02  3.6780e-02  1.0037e+00  5.0137e-01 -2.5413e+04  0:02:00  228

 absolute pressure limited to 5.000000e+10 in 114690 cells on zone 14422 

 turbulent viscosity limited to viscosity ratio of 1.000000e+05 in 97224 cells 
   273  1.3277e+07  4.2802e-02  4.5158e-02  4.9613e-02  3.6493e-02  1.0062e+00  5.0011e-01 -6.2297e+03  0:01:59  227

 absolute pressure limited to 5.000000e+10 in 114704 cells on zone 14422 

 turbulent viscosity limited to viscosity ratio of 1.000000e+05 in 96939 cells 
   274  1.3571e+07  4.3598e-02  5.1397e-02  5.8945e-02  3.4192e-02  1.0145e+00  5.0203e-01 -1.5825e+03  0:01:58  226

 absolute pressure limited to 5.000000e+10 in 114693 cells on zone 14422 

 turbulent viscosity limited to viscosity ratio of 1.000000e+05 in 96240 cells 
   275  1.4728e+07  4.1193e-02  5.0062e-02  6.5921e-02  3.3894e-02  1.0178e+00  5.0602e-01 -2.1680e+03  0:02:00  225

 absolute pressure limited to 5.000000e+10 in 114663 cells on zone 14422 

 turbulent viscosity limited to viscosity ratio of 1.000000e+05 in 94977 cells 

  iter  continuity  x-velocity  y-velocity  z-velocity      energy           k       omega  report-def     time/iter
   276  1.3946e+07  4.5619e-02  5.4176e-02  5.9698e-02  3.7714e-02  1.0047e+00  5.0223e-01  1.1741e+03  0:01:59  224

 absolute pressure limited to 5.000000e+10 in 114667 cells on zone 14422 

 turbulent viscosity limited to viscosity ratio of 1.000000e+05 in 94588 cells 
   277  1.4389e+07  4.7766e-02  5.4833e-02  6.0623e-02  3.8692e-02  1.0004e+00  5.0014e-01  2.1235e+03  0:02:02  223

 absolute pressure limited to 5.000000e+10 in 114616 cells on zone 14422 

 turbulent viscosity limited to viscosity ratio of 1.000000e+05 in 93596 cells 
   278  1.3682e+07  4.5255e-02  6.0623e-02  6.6250e-02  4.0280e-02  1.0013e+00  5.0013e-01 -9.0395e+02  0:02:04  222

 absolute pressure limited to 5.000000e+10 in 114638 cells on zone 14422 

 turbulent viscosity limited to viscosity ratio of 1.000000e+05 in 92452 cells 
   279  1.3771e+07  4.6330e-02  6.0798e-02  6.0428e-02  4.1228e-02  1.0047e+00  5.0162e-01  1.3556e+03  0:02:05  221

 absolute pressure limited to 5.000000e+10 in 114550 cells on zone 14422 

 turbulent viscosity limited to viscosity ratio of 1.000000e+05 in 90744 cells 
   280  1.4007e+07  4.7572e-02  5.8200e-02  6.0328e-02  4.4778e-02  1.0044e+00  5.0157e-01  4.4224e+03  0:02:06  220

 absolute pressure limited to 5.000000e+10 in 114543 cells on zone 14422 

 turbulent viscosity limited to viscosity ratio of 1.000000e+05 in 82109 cells 
   281  1.3757e+07  4.2114e-02  5.3325e-02  5.7046e-02  4.5103e-02  1.0148e+00  5.0474e-01  3.9267e+03  0:02:03  219

 absolute pressure limited to 5.000000e+10 in 114574 cells on zone 14422 

 turbulent viscosity limited to viscosity ratio of 1.000000e+05 in 80616 cells 
   282  1.4850e+07  3.9270e-02  5.3756e-02  5.0690e-02  3.9906e-02  1.0095e+00  5.0327e-01 -4.7233e+02  0:02:03  218

 absolute pressure limited to 5.000000e+10 in 114564 cells on zone 14422 

 turbulent viscosity limited to viscosity ratio of 1.000000e+05 in 76641 cells 
   283  1.5047e+07  3.9927e-02  5.8162e-02  5.6418e-02  4.4283e-02  1.0102e+00  5.0311e-01 -1.2053e+03  0:02:03  217

 absolute pressure limited to 5.000000e+10 in 114576 cells on zone 14422 

 turbulent viscosity limited to viscosity ratio of 1.000000e+05 in 74913 cells 
   284  1.5367e+07  4.5880e-02  6.1782e-02  5.6463e-02  4.2183e-02  1.0148e+00  5.0505e-01 -9.1701e+03  0:02:04  216

 absolute pressure limited to 5.000000e+10 in 114579 cells on zone 14422 

 turbulent viscosity limited to viscosity ratio of 1.000000e+05 in 71782 cells 
   285  1.6550e+07  4.2916e-02  5.5742e-02  5.9572e-02  4.3707e-02  1.0085e+00  5.0228e-01 -2.3275e+04  0:02:04  215

 absolute pressure limited to 5.000000e+10 in 114544 cells on zone 14422 

 turbulent viscosity limited to viscosity ratio of 1.000000e+05 in 73742 cells 
   286  1.6669e+07  4.0191e-02  5.6222e-02  5.7054e-02  4.6136e-02  1.0108e+00  5.0442e-01 -2.3324e+04  0:02:04  214

 absolute pressure limited to 5.000000e+10 in 114552 cells on zone 14422 

 turbulent viscosity limited to viscosity ratio of 1.000000e+05 in 72501 cells 

  iter  continuity  x-velocity  y-velocity  z-velocity      energy           k       omega  report-def     time/iter
   287  1.6921e+07  4.1278e-02  5.9174e-02  5.6614e-02  4.5603e-02  1.0017e+00  5.0063e-01 -3.2148e+04  0:02:03  213

 absolute pressure limited to 5.000000e+10 in 114547 cells on zone 14422 

 turbulent viscosity limited to viscosity ratio of 1.000000e+05 in 71355 cells 
   288  1.7685e+07  4.2623e-02  5.8633e-02  5.7633e-02  4.4585e-02  1.0056e+00  5.0173e-01 -4.3957e+04  0:02:03  212

 absolute pressure limited to 5.000000e+10 in 114541 cells on zone 14422 

 turbulent viscosity limited to viscosity ratio of 1.000000e+05 in 71055 cells 
   289  1.7619e+07  4.0862e-02  5.5885e-02  5.5536e-02  4.5822e-02  1.0087e+00  5.0298e-01 -3.4434e+04  0:02:03  211

 absolute pressure limited to 5.000000e+10 in 114568 cells on zone 14422 

 turbulent viscosity limited to viscosity ratio of 1.000000e+05 in 71343 cells 
   290  1.8403e+07  3.9599e-02  6.0416e-02  5.6363e-02  4.9086e-02  1.0069e+00  5.0211e-01 -2.5149e+04  0:02:03  210

 absolute pressure limited to 5.000000e+10 in 114528 cells on zone 14422 

 turbulent viscosity limited to viscosity ratio of 1.000000e+05 in 71864 cells 
   291  1.9863e+07  3.9830e-02  6.1150e-02  5.9703e-02  4.5698e-02  1.0105e+00  5.0440e-01 -2.5997e+04  0:02:03  209

 absolute pressure limited to 5.000000e+10 in 114546 cells on zone 14422 

 turbulent viscosity limited to viscosity ratio of 1.000000e+05 in 78232 cells 
   292  2.0781e+07  3.7813e-02  5.5036e-02  5.8544e-02  5.1279e-02  1.0046e+00  5.0034e-01 -2.3689e+04  0:02:03  208

 absolute pressure limited to 5.000000e+10 in 114535 cells on zone 14422 

 turbulent viscosity limited to viscosity ratio of 1.000000e+05 in 79021 cells 
   293  2.0488e+07  3.8127e-02  5.9098e-02  5.9275e-02  4.9126e-02  1.0094e+00  5.0218e-01 -2.1703e+04  0:02:02  207

 absolute pressure limited to 5.000000e+10 in 114562 cells on zone 14422 

 turbulent viscosity limited to viscosity ratio of 1.000000e+05 in 80779 cells 
   294  2.2660e+07  3.9525e-02  6.2271e-02  5.7310e-02  4.8296e-02  1.0063e+00  5.0271e-01 -2.0901e+04  0:02:01  206

 absolute pressure limited to 5.000000e+10 in 114526 cells on zone 14422 

 turbulent viscosity limited to viscosity ratio of 1.000000e+05 in 82224 cells 
   295  2.4193e+07  3.5658e-02  5.8590e-02  6.0601e-02  4.8657e-02  1.0105e+00  5.0325e-01 -1.9423e+04  0:02:12  205

 absolute pressure limited to 5.000000e+10 in 114499 cells on zone 14422 

 turbulent viscosity limited to viscosity ratio of 1.000000e+05 in 85183 cells 
   296  2.2916e+07  3.4388e-02  5.3847e-02  5.8341e-02  4.8409e-02  1.0008e+00  5.0038e-01 -2.0106e+04  0:02:08  204

 absolute pressure limited to 5.000000e+10 in 114564 cells on zone 14422 

 turbulent viscosity limited to viscosity ratio of 1.000000e+05 in 85884 cells 
   297  2.4431e+07  3.9788e-02  6.0936e-02  5.4482e-02  5.1111e-02  1.0049e+00  5.0127e-01 -1.9563e+04  0:02:06  203

 absolute pressure limited to 5.000000e+10 in 114542 cells on zone 14422 

 turbulent viscosity limited to viscosity ratio of 1.000000e+05 in 87823 cells 

  iter  continuity  x-velocity  y-velocity  z-velocity      energy           k       omega  report-def     time/iter
   298  2.7526e+07  3.6415e-02  6.0774e-02  5.6585e-02  5.0928e-02  1.0175e+00  5.0455e-01 -2.0260e+04  0:02:04  202

 absolute pressure limited to 5.000000e+10 in 114523 cells on zone 14422 

 turbulent viscosity limited to viscosity ratio of 1.000000e+05 in 89996 cells 
   299  2.7644e+07  3.4758e-02  5.9376e-02  5.5023e-02  5.0155e-02  1.0045e+00  5.0130e-01 -1.9544e+04  0:02:02  201

 absolute pressure limited to 5.000000e+10 in 114566 cells on zone 14422 

 turbulent viscosity limited to viscosity ratio of 1.000000e+05 in 91703 cells 
   300  2.8121e+07  3.5086e-02  5.5011e-02  5.2567e-02  4.9685e-02  1.0016e+00  5.0028e-01 -1.9943e+04  0:02:02  200

 absolute pressure limited to 5.000000e+10 in 114539 cells on zone 14422 

 turbulent viscosity limited to viscosity ratio of 1.000000e+05 in 94855 cells 
   301  2.9908e+07  3.5864e-02  5.6380e-02  5.8033e-02  4.9946e-02  1.0021e+00  5.0109e-01 -1.8883e+04  0:02:00  199

 absolute pressure limited to 5.000000e+10 in 114519 cells on zone 14422 

 turbulent viscosity limited to viscosity ratio of 1.000000e+05 in 97483 cells 
   302  3.1387e+07  3.1411e-02  5.5033e-02  5.8707e-02  5.1323e-02  1.0040e+00  5.0135e-01 -1.8424e+04  0:01:59  198

 absolute pressure limited to 5.000000e+10 in 114522 cells on zone 14422 

 turbulent viscosity limited to viscosity ratio of 1.000000e+05 in 98870 cells 
   303  3.2738e+07  3.2601e-02  5.6657e-02  6.0687e-02  5.0885e-02  1.0087e+00  5.0268e-01 -1.8199e+04  0:01:57  197

 absolute pressure limited to 5.000000e+10 in 114550 cells on zone 14422 

 turbulent viscosity limited to viscosity ratio of 1.000000e+05 in 99291 cells 
   304  3.4895e+07  3.4844e-02  5.7482e-02  5.6592e-02  5.2986e-02  1.0241e+00  5.0610e-01 -2.0042e+04  0:01:56  196

 absolute pressure limited to 5.000000e+10 in 114527 cells on zone 14422 

 turbulent viscosity limited to viscosity ratio of 1.000000e+05 in 99974 cells 
   305  3.7429e+07  3.4054e-02  5.8690e-02  5.6530e-02  5.4173e-02  1.0028e+00  5.0125e-01 -1.9268e+04  0:01:56  195

 absolute pressure limited to 5.000000e+10 in 114519 cells on zone 14422 

 turbulent viscosity limited to viscosity ratio of 1.000000e+05 in 100003 cells 
   306  3.9348e+07  3.1228e-02  6.0143e-02  5.4106e-02  5.2172e-02  1.0013e+00  4.9934e-01 -1.9165e+04  0:01:55  194

 absolute pressure limited to 5.000000e+10 in 114543 cells on zone 14422 

 turbulent viscosity limited to viscosity ratio of 1.000000e+05 in 100441 cells 
   307  4.0968e+07  3.1896e-02  5.9578e-02  5.4467e-02  5.4338e-02  1.0026e+00  4.9876e-01 -1.8896e+04  0:01:55  193

 absolute pressure limited to 5.000000e+10 in 114541 cells on zone 14422 

 turbulent viscosity limited to viscosity ratio of 1.000000e+05 in 100354 cells 
   308  4.2674e+07  3.2837e-02  6.1027e-02  5.2451e-02  5.5597e-02  1.0060e+00  5.0070e-01 -2.0038e+04  0:01:54  192

 absolute pressure limited to 5.000000e+10 in 114531 cells on zone 14422 

 turbulent viscosity limited to viscosity ratio of 1.000000e+05 in 100775 cells 

  iter  continuity  x-velocity  y-velocity  z-velocity      energy           k       omega  report-def     time/iter
   309  4.7778e+07  3.3392e-02  5.9953e-02  5.6587e-02  5.3371e-02  1.0087e+00  5.0506e-01 -1.8420e+04  0:01:53  191

 absolute pressure limited to 5.000000e+10 in 114521 cells on zone 14422 

 turbulent viscosity limited to viscosity ratio of 1.000000e+05 in 100661 cells 
   310  5.2502e+07  3.0263e-02  5.8533e-02  5.5583e-02  5.6433e-02  1.0069e+00  5.0261e-01 -1.9232e+04  0:01:52  190

 absolute pressure limited to 5.000000e+10 in 114540 cells on zone 14422 

 turbulent viscosity limited to viscosity ratio of 1.000000e+05 in 100668 cells 
   311  5.3670e+07  3.1115e-02  6.4303e-02  5.3282e-02  5.6394e-02  1.0022e+00  5.0111e-01 -1.8238e+04  0:01:52  189

 absolute pressure limited to 5.000000e+10 in 114558 cells on zone 14422 

 turbulent viscosity limited to viscosity ratio of 1.000000e+05 in 100644 cells 
   312  6.0358e+07  3.2105e-02  6.3657e-02  5.0768e-02  5.2862e-02  1.0002e+00  4.9935e-01 -2.0538e+04  0:01:51  188

 absolute pressure limited to 5.000000e+10 in 114560 cells on zone 14422 

 turbulent viscosity limited to viscosity ratio of 1.000000e+05 in 101004 cells 
   313  6.7266e+07  3.0190e-02  5.9864e-02  4.7060e-02  7.4903e-02  9.9997e-01  4.9907e-01 -1.8120e+04  0:01:48  187

 absolute pressure limited to 5.000000e+10 in 114581 cells on zone 14422 

 turbulent viscosity limited to viscosity ratio of 1.000000e+05 in 101767 cells 
   314  8.6825e+07  2.6642e-02  5.6420e-02  3.8112e-02  5.9738e-02  9.9831e-01  4.9658e-01 -1.8350e+04  0:01:45  186

 absolute pressure limited to 5.000000e+10 in 114684 cells on zone 14422 

 turbulent viscosity limited to viscosity ratio of 1.000000e+05 in 101992 cells 
   315  1.1887e+08  2.5139e-02  5.2918e-02  4.1769e-02  4.9555e-02  9.9686e-01  4.9433e-01 -2.0522e+04  0:01:43  185

 absolute pressure limited to 5.000000e+10 in 114682 cells on zone 14422 

 turbulent viscosity limited to viscosity ratio of 1.000000e+05 in 102004 cells 
   316  1.4622e+08  2.6581e-02  5.5553e-02  4.2747e-02  4.6192e-02  9.9556e-01  4.9371e-01 -2.1042e+04  0:01:40  184

 absolute pressure limited to 5.000000e+10 in 114691 cells on zone 14422 

 turbulent viscosity limited to viscosity ratio of 1.000000e+05 in 102019 cells 
   317  1.5431e+08  2.6268e-02  5.5916e-02  4.5389e-02  4.3355e-02  9.8283e-01  4.8675e-01 -2.1567e+04  0:01:39  183

 absolute pressure limited to 5.000000e+10 in 114680 cells on zone 14422 

 turbulent viscosity limited to viscosity ratio of 1.000000e+05 in 101868 cells 
   318  1.6205e+08  2.5177e-02  5.1644e-02  4.5292e-02  3.9897e-02  9.5830e-01  4.7764e-01 -2.0424e+04  0:01:38  182

 absolute pressure limited to 5.000000e+10 in 114685 cells on zone 14422 

 turbulent viscosity limited to viscosity ratio of 1.000000e+05 in 101821 cells 
   319  1.6246e+08  2.3983e-02  4.8018e-02  4.8051e-02  3.2439e-02  9.6664e-01  4.7637e-01 -1.9761e+04  0:01:37  181

 absolute pressure limited to 5.000000e+10 in 114682 cells on zone 14422 

 turbulent viscosity limited to viscosity ratio of 1.000000e+05 in 101672 cells 

  iter  continuity  x-velocity  y-velocity  z-velocity      energy           k       omega  report-def     time/iter
   320  1.7036e+08  2.1405e-02  4.4692e-02  5.0498e-02  3.2374e-02  9.7032e-01  4.7753e-01 -1.9255e+04  0:01:35  180

 absolute pressure limited to 5.000000e+10 in 114682 cells on zone 14422 

 turbulent viscosity limited to viscosity ratio of 1.000000e+05 in 101738 cells 
   321  1.8074e+08  2.0594e-02  4.5057e-02  5.3351e-02  2.8578e-02  9.9581e-01  4.9565e-01 -1.9260e+04  0:01:34  179

 absolute pressure limited to 5.000000e+10 in 114669 cells on zone 14422 

 turbulent viscosity limited to viscosity ratio of 1.000000e+05 in 101582 cells 
   322  1.9151e+08  1.9829e-02  4.4348e-02  5.2957e-02  2.8520e-02  9.8755e-01  4.9211e-01 -1.8876e+04  0:01:34  178

 absolute pressure limited to 5.000000e+10 in 114663 cells on zone 14422 

 turbulent viscosity limited to viscosity ratio of 1.000000e+05 in 101562 cells 
   323  1.9660e+08  2.0514e-02  4.6036e-02  5.0060e-02  2.7020e-02  9.9228e-01  4.9335e-01 -1.9061e+04  0:01:33  177

 absolute pressure limited to 5.000000e+10 in 114671 cells on zone 14422 

 turbulent viscosity limited to viscosity ratio of 1.000000e+05 in 101498 cells 
   324  2.0691e+08  2.1432e-02  4.7932e-02  4.9653e-02  2.5508e-02  9.8242e-01  4.8914e-01 -1.8925e+04  0:01:32  176

 absolute pressure limited to 5.000000e+10 in 114684 cells on zone 14422 

 turbulent viscosity limited to viscosity ratio of 1.000000e+05 in 101673 cells 
   325  2.2728e+08  2.1061e-02  4.7812e-02  4.6839e-02  2.5730e-02  9.8220e-01  4.8504e-01 -1.9460e+04  0:01:31  175

 absolute pressure limited to 5.000000e+10 in 114688 cells on zone 14422 

 turbulent viscosity limited to viscosity ratio of 1.000000e+05 in 101698 cells 
   326  2.4537e+08  2.1171e-02  4.8387e-02  4.6962e-02  2.4494e-02  9.8403e-01  4.8592e-01 -1.9956e+04  0:01:31  174

 absolute pressure limited to 5.000000e+10 in 114679 cells on zone 14422 

 turbulent viscosity limited to viscosity ratio of 1.000000e+05 in 101679 cells 
   327  2.5185e+08  1.9543e-02  4.6636e-02  4.3885e-02  2.4414e-02  9.9937e-01  4.9917e-01 -2.0483e+04  0:01:30  173

 absolute pressure limited to 5.000000e+10 in 114670 cells on zone 14422 

 turbulent viscosity limited to viscosity ratio of 1.000000e+05 in 101693 cells 
   328  2.4841e+08  1.9509e-02  4.6346e-02  4.2902e-02  2.1677e-02  9.9766e-01  4.9856e-01 -2.1729e+04  0:01:29  172

 absolute pressure limited to 5.000000e+10 in 114677 cells on zone 14422 

 turbulent viscosity limited to viscosity ratio of 1.000000e+05 in 101654 cells 
   329  2.5347e+08  1.8715e-02  4.4674e-02  4.4617e-02  2.3069e-02  9.9919e-01  4.9928e-01 -2.2688e+04  0:01:29  171

 absolute pressure limited to 5.000000e+10 in 114683 cells on zone 14422 

 turbulent viscosity limited to viscosity ratio of 1.000000e+05 in 101677 cells 
   330  2.6478e+08  1.9450e-02  4.4902e-02  4.4298e-02  2.3507e-02  9.9757e-01  4.9870e-01 -2.4502e+04  0:01:29  170

 absolute pressure limited to 5.000000e+10 in 114649 cells on zone 14422 

 turbulent viscosity limited to viscosity ratio of 1.000000e+05 in 101630 cells 

  iter  continuity  x-velocity  y-velocity  z-velocity      energy           k       omega  report-def     time/iter
   331  2.6404e+08  1.9326e-02  4.5327e-02  4.3031e-02  2.4749e-02  9.9812e-01  4.9844e-01 -2.5853e+04  0:01:28  169

 absolute pressure limited to 5.000000e+10 in 114662 cells on zone 14422 

 turbulent viscosity limited to viscosity ratio of 1.000000e+05 in 101662 cells 
   332  2.6526e+08  2.0091e-02  4.6367e-02  4.3662e-02  2.5007e-02  9.9317e-01  4.9686e-01 -2.7540e+04  0:01:28  168

 absolute pressure limited to 5.000000e+10 in 114683 cells on zone 14422 

 turbulent viscosity limited to viscosity ratio of 1.000000e+05 in 101655 cells 
   333  2.8825e+08  1.9977e-02  4.6434e-02  4.4104e-02  2.3041e-02  9.9945e-01  4.9940e-01 -2.6041e+04  0:01:27  167

 absolute pressure limited to 5.000000e+10 in 114667 cells on zone 14422 

 turbulent viscosity limited to viscosity ratio of 1.000000e+05 in 101636 cells 
   334  3.0160e+08  1.9233e-02  4.5628e-02  4.2951e-02  2.1959e-02  9.9938e-01  4.9945e-01 -2.8291e+04  0:01:27  166

 absolute pressure limited to 5.000000e+10 in 114643 cells on zone 14422 

 turbulent viscosity limited to viscosity ratio of 1.000000e+05 in 101678 cells 
   335  2.8608e+08  1.8208e-02  4.2978e-02  3.9326e-02  2.1700e-02  9.9675e-01  4.9871e-01 -2.7507e+04  0:01:26  165

 absolute pressure limited to 5.000000e+10 in 114672 cells on zone 14422 

 turbulent viscosity limited to viscosity ratio of 1.000000e+05 in 101727 cells 
   336  2.7937e+08  1.8330e-02  4.1918e-02  3.7184e-02  2.5145e-02  9.9141e-01  4.9741e-01 -3.0382e+04  0:01:25  164

 absolute pressure limited to 5.000000e+10 in 114688 cells on zone 14422 

 turbulent viscosity limited to viscosity ratio of 1.000000e+05 in 101707 cells 
   337  3.0672e+08  1.8964e-02  4.2968e-02  3.8443e-02  2.6272e-02  9.9078e-01  4.9506e-01 -3.0981e+04  0:01:24  163

 absolute pressure limited to 5.000000e+10 in 114659 cells on zone 14422 

 turbulent viscosity limited to viscosity ratio of 1.000000e+05 in 101698 cells 
   338  3.0576e+08  1.7669e-02  4.1347e-02  3.5019e-02  2.6124e-02  9.8478e-01  4.9178e-01 -3.3556e+04  0:01:25  162

 absolute pressure limited to 5.000000e+10 in 114639 cells on zone 14422 

 turbulent viscosity limited to viscosity ratio of 1.000000e+05 in 101653 cells 
   339  2.7380e+08  1.8781e-02  4.2101e-02  3.6305e-02  2.3313e-02  9.8343e-01  4.8879e-01 -3.1446e+04  0:01:24  161

 absolute pressure limited to 5.000000e+10 in 114655 cells on zone 14422 

 turbulent viscosity limited to viscosity ratio of 1.000000e+05 in 101692 cells 
   340  2.8059e+08  1.9049e-02  4.2314e-02  3.6830e-02  2.5312e-02  9.7420e-01  4.8522e-01 -3.3914e+04  0:01:26  160

 absolute pressure limited to 5.000000e+10 in 114657 cells on zone 14422 

 turbulent viscosity limited to viscosity ratio of 1.000000e+05 in 101695 cells 
   341  3.0221e+08  1.9869e-02  4.4381e-02  3.9560e-02  2.7467e-02  9.9735e-01  4.9664e-01 -3.2106e+04  0:01:24  159

 absolute pressure limited to 5.000000e+10 in 114665 cells on zone 14422 

 turbulent viscosity limited to viscosity ratio of 1.000000e+05 in 101688 cells 

  iter  continuity  x-velocity  y-velocity  z-velocity      energy           k       omega  report-def     time/iter
   342  3.1002e+08  1.9515e-02  4.6021e-02  3.8699e-02  2.6829e-02  9.9757e-01  4.9716e-01 -3.3322e+04  0:01:24  158

 absolute pressure limited to 5.000000e+10 in 114653 cells on zone 14422 

 turbulent viscosity limited to viscosity ratio of 1.000000e+05 in 101746 cells 
   343  3.0441e+08  1.9049e-02  4.4473e-02  3.8071e-02  2.6047e-02  9.9248e-01  4.9491e-01 -3.1013e+04  0:01:24  157

 absolute pressure limited to 5.000000e+10 in 114671 cells on zone 14422 

 turbulent viscosity limited to viscosity ratio of 1.000000e+05 in 101760 cells 
   344  3.0777e+08  1.9528e-02  4.5273e-02  3.8984e-02  2.4424e-02  9.7285e-01  4.8916e-01 -3.3512e+04  0:01:23  156

 absolute pressure limited to 5.000000e+10 in 114664 cells on zone 14422 

 turbulent viscosity limited to viscosity ratio of 1.000000e+05 in 101848 cells 
   345  3.1391e+08  1.9411e-02  4.3803e-02  3.6973e-02  2.4877e-02  9.8024e-01  4.8573e-01 -3.1396e+04  0:01:21  155

 absolute pressure limited to 5.000000e+10 in 114660 cells on zone 14422 

 turbulent viscosity limited to viscosity ratio of 1.000000e+05 in 101881 cells 
   346  3.1617e+08  1.9055e-02  4.4511e-02  3.6681e-02  2.5395e-02  9.9221e-01  4.9235e-01 -3.2075e+04  0:01:21  154

 absolute pressure limited to 5.000000e+10 in 114655 cells on zone 14422 

 turbulent viscosity limited to viscosity ratio of 1.000000e+05 in 102482 cells 
   347  3.1145e+08  2.0162e-02  4.5055e-02  3.8984e-02  2.5342e-02  9.8067e-01  4.8704e-01 -3.0462e+04  0:01:21  153

 absolute pressure limited to 5.000000e+10 in 114666 cells on zone 14422 

 turbulent viscosity limited to viscosity ratio of 1.000000e+05 in 103858 cells 
   348  3.1327e+08  1.9770e-02  4.5003e-02  3.9425e-02  2.6561e-02  9.8301e-01  4.8661e-01 -3.2284e+04  0:01:19  152

 absolute pressure limited to 5.000000e+10 in 114657 cells on zone 14422 

 turbulent viscosity limited to viscosity ratio of 1.000000e+05 in 104929 cells 
   349  3.2125e+08  1.9976e-02  4.5907e-02  3.9570e-02  2.7014e-02  9.9955e-01  4.9950e-01 -3.0442e+04  0:01:18  151

 absolute pressure limited to 5.000000e+10 in 114669 cells on zone 14422 

 turbulent viscosity limited to viscosity ratio of 1.000000e+05 in 105741 cells 
   350  3.2618e+08  2.0014e-02  4.5598e-02  3.9489e-02  2.8250e-02  9.9787e-01  4.9889e-01 -3.0855e+04  0:01:17  150

 absolute pressure limited to 5.000000e+10 in 114648 cells on zone 14422 

 turbulent viscosity limited to viscosity ratio of 1.000000e+05 in 106751 cells 
   351  3.2574e+08  2.0039e-02  4.5572e-02  3.7097e-02  2.9807e-02  9.9775e-01  4.9825e-01 -3.0170e+04  0:01:17  149

 absolute pressure limited to 5.000000e+10 in 114677 cells on zone 14422 

 turbulent viscosity limited to viscosity ratio of 1.000000e+05 in 107247 cells 
   352  3.3297e+08  1.9518e-02  4.4382e-02  3.4866e-02  2.8118e-02  9.9586e-01  4.9708e-01 -3.1534e+04  0:01:16  148

 absolute pressure limited to 5.000000e+10 in 114642 cells on zone 14422 

 turbulent viscosity limited to viscosity ratio of 1.000000e+05 in 107698 cells 

  iter  continuity  x-velocity  y-velocity  z-velocity      energy           k       omega  report-def     time/iter
   353  3.2646e+08  1.9968e-02  4.4821e-02  3.4196e-02  2.7858e-02  9.8441e-01  4.9347e-01 -3.1052e+04  0:01:16  147

 absolute pressure limited to 5.000000e+10 in 114645 cells on zone 14422 

 turbulent viscosity limited to viscosity ratio of 1.000000e+05 in 108171 cells 
   354  3.1954e+08  1.9045e-02  4.3813e-02  3.5087e-02  2.7720e-02  9.8640e-01  4.9102e-01 -3.0714e+04  0:01:15  146

 absolute pressure limited to 5.000000e+10 in 114660 cells on zone 14422 

 turbulent viscosity limited to viscosity ratio of 1.000000e+05 in 108372 cells 
   355  3.2778e+08  1.9447e-02  4.3965e-02  3.4177e-02  3.0255e-02  9.5927e-01  4.8281e-01 -3.0312e+04  0:01:14  145

 absolute pressure limited to 5.000000e+10 in 114673 cells on zone 14422 

 turbulent viscosity limited to viscosity ratio of 1.000000e+05 in 108421 cells 
   356  3.3081e+08  1.9572e-02  4.5569e-02  3.4955e-02  3.0073e-02  9.8502e-01  4.8463e-01 -3.1766e+04  0:01:13  144

 absolute pressure limited to 5.000000e+10 in 114664 cells on zone 14422 

 turbulent viscosity limited to viscosity ratio of 1.000000e+05 in 108453 cells 
   357  3.4725e+08  2.0052e-02  4.6535e-02  3.5048e-02  2.5621e-02  9.6399e-01  4.7561e-01 -3.2646e+04  0:01:13  143

 absolute pressure limited to 5.000000e+10 in 114642 cells on zone 14422 

 turbulent viscosity limited to viscosity ratio of 1.000000e+05 in 108429 cells 
   358  3.4401e+08  2.0201e-02  4.6617e-02  3.4242e-02  3.0494e-02  9.4951e-01  4.6423e-01 -2.9463e+04  0:01:13  142

 absolute pressure limited to 5.000000e+10 in 114655 cells on zone 14422 

 turbulent viscosity limited to viscosity ratio of 1.000000e+05 in 108456 cells 
   359  3.4314e+08  2.1714e-02  4.7792e-02  3.4273e-02  2.8330e-02  9.9443e-01  4.9435e-01 -2.9230e+04  0:01:12  141

 absolute pressure limited to 5.000000e+10 in 114638 cells on zone 14422 

 turbulent viscosity limited to viscosity ratio of 1.000000e+05 in 108312 cells 
   360  3.3702e+08  2.0832e-02  4.7553e-02  3.5338e-02  2.9552e-02  9.9956e-01  4.9953e-01 -2.9058e+04  0:01:11  140

 absolute pressure limited to 5.000000e+10 in 114649 cells on zone 14422 

 turbulent viscosity limited to viscosity ratio of 1.000000e+05 in 108544 cells 
   361  3.2306e+08  2.1383e-02  4.7015e-02  3.8517e-02  2.5558e-02  9.9795e-01  4.9907e-01 -2.9748e+04  0:01:11  139

 absolute pressure limited to 5.000000e+10 in 114660 cells on zone 14422 

 turbulent viscosity limited to viscosity ratio of 1.000000e+05 in 108633 cells 
   362  3.4222e+08  2.0263e-02  4.5077e-02  3.9741e-02  3.4839e-02  9.9915e-01  4.9925e-01 -2.8561e+04  0:01:11  138

 absolute pressure limited to 5.000000e+10 in 114653 cells on zone 14422 

 turbulent viscosity limited to viscosity ratio of 1.000000e+05 in 108651 cells 
   363  3.5199e+08  2.1160e-02  4.7597e-02  3.9961e-02  2.9918e-02  9.9720e-01  4.9830e-01 -3.0732e+04  0:01:10  137

 absolute pressure limited to 5.000000e+10 in 114658 cells on zone 14422 

 turbulent viscosity limited to viscosity ratio of 1.000000e+05 in 108608 cells 

  iter  continuity  x-velocity  y-velocity  z-velocity      energy           k       omega  report-def     time/iter
   364  3.5925e+08  2.0697e-02  4.7768e-02  3.9973e-02  2.7208e-02  9.8983e-01  4.9593e-01 -3.1459e+04  0:01:09  136
 temperature limited to 5.000000e+03 in 1 cells on zone 14422 in domain 1
 
 absolute pressure limited to 5.000000e+10 in 114659 cells on zone 14422 

 turbulent viscosity limited to viscosity ratio of 1.000000e+05 in 108697 cells 
   365  3.7382e+08  2.0539e-02  4.7063e-02  3.7598e-02  2.5587e-02  9.7563e-01  4.9095e-01 -3.1423e+04  0:01:09  135
 temperature limited to 5.000000e+03 in 8 cells on zone 14422 in domain 1
 
 absolute pressure limited to 5.000000e+10 in 114645 cells on zone 14422 

 turbulent viscosity limited to viscosity ratio of 1.000000e+05 in 108562 cells 
   366  3.5704e+08  2.0449e-02  4.5942e-02  3.4964e-02  2.8708e-02  9.9220e-01  4.9337e-01 -3.1896e+04  0:01:08  134
 temperature limited to 5.000000e+03 in 24 cells on zone 14422 in domain 1
 
 absolute pressure limited to 5.000000e+10 in 114644 cells on zone 14422 

 turbulent viscosity limited to viscosity ratio of 1.000000e+05 in 108623 cells 
   367  3.3994e+08  2.1016e-02  4.5995e-02  3.4864e-02  2.9579e-02  9.9854e-01  4.9819e-01 -3.5071e+04  0:01:08  133

 absolute pressure limited to 5.000000e+10 in 114645 cells on zone 14422 

 turbulent viscosity limited to viscosity ratio of 1.000000e+05 in 108516 cells 
   368  3.4550e+08  2.0657e-02  4.5875e-02  3.4435e-02  2.8951e-02  9.9893e-01  4.9891e-01 -3.4477e+04  0:01:07  132

 absolute pressure limited to 5.000000e+10 in 114640 cells on zone 14422 

 turbulent viscosity limited to viscosity ratio of 1.000000e+05 in 108521 cells 
   369  3.3672e+08  2.1246e-02  4.7631e-02  3.7275e-02  3.5885e-02  9.9636e-01  4.9786e-01 -3.8389e+04  0:01:07  131

 absolute pressure limited to 5.000000e+10 in 114648 cells on zone 14422 

 turbulent viscosity limited to viscosity ratio of 1.000000e+05 in 108375 cells 
   370  3.5367e+08  2.2038e-02  4.8676e-02  3.9490e-02  3.6526e-02  9.9751e-01  4.9773e-01 -3.8571e+04  0:01:06  130

 absolute pressure limited to 5.000000e+10 in 114632 cells on zone 14422 

 turbulent viscosity limited to viscosity ratio of 1.000000e+05 in 108185 cells 
   371  3.7404e+08  2.1611e-02  4.8363e-02  3.7840e-02  3.5532e-02  9.9949e-01  4.9956e-01 -4.3355e+04  0:01:05  129
 temperature limited to 5.000000e+03 in 1 cells on zone 14422 in domain 1
 
 absolute pressure limited to 5.000000e+10 in 114647 cells on zone 14422 

 turbulent viscosity limited to viscosity ratio of 1.000000e+05 in 107953 cells 
   372  3.7489e+08  2.1317e-02  4.8082e-02  3.8945e-02  3.0255e-02  9.9796e-01  4.9891e-01 -4.3014e+04  0:01:05  128
 temperature limited to 5.000000e+03 in 8 cells on zone 14422 in domain 1
 
 absolute pressure limited to 5.000000e+10 in 114644 cells on zone 14422 

 turbulent viscosity limited to viscosity ratio of 1.000000e+05 in 107906 cells 
   373  3.7368e+08  2.0396e-02  4.5955e-02  3.6009e-02  3.0517e-02  9.9499e-01  4.9813e-01 -4.8095e+04  0:01:05  127
 temperature limited to 5.000000e+03 in 48 cells on zone 14422 in domain 1
 
 absolute pressure limited to 5.000000e+10 in 114658 cells on zone 14422 

 turbulent viscosity limited to viscosity ratio of 1.000000e+05 in 107911 cells 
   374  3.7400e+08  2.0705e-02  4.6863e-02  3.4928e-02  2.9549e-02  9.9332e-01  4.9625e-01 -5.0914e+04  0:01:04  126
 temperature limited to 5.000000e+03 in 149 cells on zone 14422 in domain 1
 
 absolute pressure limited to 5.000000e+10 in 114637 cells on zone 14422 

[...]

 turbulent viscosity limited to viscosity ratio of 1.000000e+05 in 106382 cells 

  iter  continuity  x-velocity  y-velocity  z-velocity      energy           k       omega  report-def     time/iter
   452  8.0940e+08  2.0237e-02  4.5670e-02  3.1487e-02  4.6392e-02  9.9587e-01  4.9900e-01 -9.3088e+04  0:00:25   48
 temperature limited to 1.000000e+00 in 52 cells on zone 14422 in domain 1
 
 absolute pressure limited to 5.000000e+10 in 114546 cells on zone 14422 

 turbulent viscosity limited to viscosity ratio of 1.000000e+05 in 106325 cells 
   453  8.5533e+08  2.0584e-02  4.7361e-02  3.1295e-02  4.5449e-02  9.9806e-01  4.9871e-01 -9.3040e+04  0:00:24   47
 temperature limited to 1.000000e+00 in 74 cells on zone 14422 in domain 1
 
 absolute pressure limited to 5.000000e+10 in 114549 cells on zone 14422 

 turbulent viscosity limited to viscosity ratio of 1.000000e+05 in 106433 cells 
   454  8.5298e+08  2.1480e-02  4.8953e-02  3.1803e-02  4.6534e-02  9.9631e-01  4.9783e-01 -9.2421e+04  0:00:24   46
 temperature limited to 1.000000e+00 in 66 cells on zone 14422 in domain 1
 
 absolute pressure limited to 5.000000e+10 in 114568 cells on zone 14422 

 turbulent viscosity limited to viscosity ratio of 1.000000e+05 in 106559 cells 
   455  8.6984e+08  2.1462e-02  4.8785e-02  3.0468e-02  4.9282e-02  9.9932e-01  4.9921e-01 -9.2967e+04  0:00:23   45
 temperature limited to 1.000000e+00 in 85 cells on zone 14422 in domain 1
 
 absolute pressure limited to 5.000000e+10 in 114580 cells on zone 14422 

 turbulent viscosity limited to viscosity ratio of 1.000000e+05 in 106689 cells 
   456  9.1508e+08  2.3026e-02  5.3527e-02  2.8635e-02  4.7597e-02  9.9740e-01  4.9838e-01 -9.2549e+04  0:00:23   44
 temperature limited to 1.000000e+00 in 55 cells on zone 14422 in domain 1
  temperature limited to 5.000000e+03 in 30 cells on zone 14422 in domain 1
 
 absolute pressure limited to 5.000000e+10 in 114554 cells on zone 14422 

 turbulent viscosity limited to viscosity ratio of 1.000000e+05 in 106976 cells 
   457  9.2360e+08  2.2032e-02  5.2137e-02  3.0065e-02  4.8994e-02  9.9651e-01  4.9723e-01 -9.1880e+04  0:00:22   43
 temperature limited to 1.000000e+00 in 91 cells on zone 14422 in domain 1
  temperature limited to 5.000000e+03 in 55 cells on zone 14422 in domain 1
 
 absolute pressure limited to 5.000000e+10 in 114557 cells on zone 14422 

 turbulent viscosity limited to viscosity ratio of 1.000000e+05 in 106997 cells 
   458  9.6715e+08  2.1748e-02  5.0767e-02  2.8044e-02  4.8129e-02  9.9541e-01  4.9655e-01 -9.2294e+04  0:00:21   42
 temperature limited to 1.000000e+00 in 96 cells on zone 14422 in domain 1
  temperature limited to 5.000000e+03 in 53 cells on zone 14422 in domain 1
 
 absolute pressure limited to 5.000000e+10 in 114562 cells on zone 14422 

 turbulent viscosity limited to viscosity ratio of 1.000000e+05 in 107219 cells 
   459  1.0120e+09  2.1033e-02  5.0134e-02  3.1447e-02  4.6127e-02  9.9662e-01  4.9648e-01 -9.3485e+04  0:00:21   41
 temperature limited to 1.000000e+00 in 69 cells on zone 14422 in domain 1
  temperature limited to 5.000000e+03 in 7 cells on zone 14422 in domain 1
 
 absolute pressure limited to 5.000000e+10 in 114561 cells on zone 14422 

 turbulent viscosity limited to viscosity ratio of 1.000000e+05 in 107307 cells 
   460  1.0589e+09  2.0810e-02  4.9808e-02  3.1204e-02  4.2843e-02  9.9084e-01  4.9318e-01 -9.5481e+04  0:00:20   40
 temperature limited to 1.000000e+00 in 77 cells on zone 14422 in domain 1
 
 absolute pressure limited to 5.000000e+10 in 114570 cells on zone 14422 

 turbulent viscosity limited to viscosity ratio of 1.000000e+05 in 107430 cells 
   461  1.1167e+09  2.0025e-02  4.7200e-02  2.9390e-02  4.0041e-02  9.6191e-01  4.8300e-01 -9.7203e+04  0:00:20   39
 temperature limited to 1.000000e+00 in 57 cells on zone 14422 in domain 1
 
 absolute pressure limited to 5.000000e+10 in 114572 cells on zone 14422 

 turbulent viscosity limited to viscosity ratio of 1.000000e+05 in 107494 cells 
   462  1.1388e+09  1.8907e-02  4.4338e-02  2.6162e-02  3.8618e-02  9.6719e-01  4.7613e-01 -9.8401e+04  0:00:19   38
 temperature limited to 1.000000e+00 in 11 cells on zone 14422 in domain 1
 
 absolute pressure limited to 5.000000e+10 in 114555 cells on zone 14422 

 turbulent viscosity limited to viscosity ratio of 1.000000e+05 in 107517 cells 

  iter  continuity  x-velocity  y-velocity  z-velocity      energy           k       omega  report-def     time/iter
   463  1.1260e+09  1.8783e-02  4.4253e-02  2.6478e-02  4.4142e-02  9.8069e-01  4.7945e-01 -9.9621e+04  0:00:19   37
 temperature limited to 1.000000e+00 in 73 cells on zone 14422 in domain 1
 
 absolute pressure limited to 5.000000e+10 in 114538 cells on zone 14422 

 turbulent viscosity limited to viscosity ratio of 1.000000e+05 in 107684 cells 
   464  1.1087e+09  1.8559e-02  4.3203e-02  2.5374e-02  4.5845e-02  9.8989e-01  4.8415e-01 -1.0185e+05  0:00:18   36
 temperature limited to 1.000000e+00 in 90 cells on zone 14422 in domain 1
  temperature limited to 5.000000e+03 in 5 cells on zone 14422 in domain 1
 
 absolute pressure limited to 5.000000e+10 in 114542 cells on zone 14422 

 turbulent viscosity limited to viscosity ratio of 1.000000e+05 in 107744 cells 
   465  1.0733e+09  1.9712e-02  4.5754e-02  2.7118e-02  5.0470e-02  9.9953e-01  4.9954e-01 -1.0388e+05  0:00:18   35
 temperature limited to 1.000000e+00 in 27 cells on zone 14422 in domain 1
  temperature limited to 5.000000e+03 in 9 cells on zone 14422 in domain 1
 
 absolute pressure limited to 5.000000e+10 in 114550 cells on zone 14422 

 turbulent viscosity limited to viscosity ratio of 1.000000e+05 in 107564 cells 
   466  1.0989e+09  1.9825e-02  4.6631e-02  3.1996e-02  4.5695e-02  9.9836e-01  4.9922e-01 -1.0676e+05  0:00:17   34
 temperature limited to 1.000000e+00 in 100 cells on zone 14422 in domain 1
  temperature limited to 5.000000e+03 in 14 cells on zone 14422 in domain 1
 
 absolute pressure limited to 5.000000e+10 in 114540 cells on zone 14422 

 turbulent viscosity limited to viscosity ratio of 1.000000e+05 in 107523 cells 
   467  1.1755e+09  2.0160e-02  4.7573e-02  3.5413e-02  4.4250e-02  9.9523e-01  4.9812e-01 -1.0911e+05  0:00:17   33
 temperature limited to 1.000000e+00 in 139 cells on zone 14422 in domain 1
 
 absolute pressure limited to 5.000000e+10 in 114559 cells on zone 14422 

 turbulent viscosity limited to viscosity ratio of 1.000000e+05 in 107418 cells 
   468  1.2817e+09  1.8934e-02  4.4120e-02  3.4784e-02  4.3995e-02  9.9473e-01  4.9637e-01 -1.1298e+05  0:00:16   32
 temperature limited to 1.000000e+00 in 151 cells on zone 14422 in domain 1
  temperature limited to 5.000000e+03 in 13 cells on zone 14422 in domain 1
 
 absolute pressure limited to 5.000000e+10 in 114565 cells on zone 14422 

 turbulent viscosity limited to viscosity ratio of 1.000000e+05 in 107040 cells 
   469  1.3316e+09  1.8377e-02  4.3636e-02  3.1878e-02  4.6488e-02  9.9873e-01  4.9859e-01 -1.1648e+05  0:00:16   31
 temperature limited to 1.000000e+00 in 181 cells on zone 14422 in domain 1
  temperature limited to 5.000000e+03 in 18 cells on zone 14422 in domain 1
 
 absolute pressure limited to 5.000000e+10 in 114576 cells on zone 14422 

 turbulent viscosity limited to viscosity ratio of 1.000000e+05 in 106553 cells 
   470  1.4044e+09  1.9151e-02  4.6667e-02  2.9842e-02  4.6773e-02  9.9906e-01  4.9872e-01 -1.2111e+05  0:00:15   30
 temperature limited to 1.000000e+00 in 208 cells on zone 14422 in domain 1
 
 absolute pressure limited to 5.000000e+10 in 114537 cells on zone 14422 

 turbulent viscosity limited to viscosity ratio of 1.000000e+05 in 106197 cells 
   471  1.4151e+09  1.8851e-02  4.5606e-02  2.6494e-02  4.5074e-02  9.9569e-01  4.9767e-01 -1.2597e+05  0:00:15   29
 temperature limited to 1.000000e+00 in 219 cells on zone 14422 in domain 1
  temperature limited to 5.000000e+03 in 15 cells on zone 14422 in domain 1
 
 absolute pressure limited to 5.000000e+10 in 114563 cells on zone 14422 

 turbulent viscosity limited to viscosity ratio of 1.000000e+05 in 106045 cells 
   472  1.4288e+09  1.8267e-02  4.3816e-02  2.6392e-02  4.0445e-02  9.8459e-01  4.9520e-01 -1.3285e+05  0:00:14   28
 temperature limited to 1.000000e+00 in 247 cells on zone 14422 in domain 1
  temperature limited to 5.000000e+03 in 9 cells on zone 14422 in domain 1
 
 absolute pressure limited to 5.000000e+10 in 114571 cells on zone 14422 

 turbulent viscosity limited to viscosity ratio of 1.000000e+05 in 105798 cells 
   473  1.5066e+09  1.7627e-02  4.2180e-02  2.4829e-02  4.2200e-02  9.9937e-01  4.9901e-01 -1.3891e+05  0:00:14   27
 temperature limited to 1.000000e+00 in 205 cells on zone 14422 in domain 1
 
 absolute pressure limited to 5.000000e+10 in 114572 cells on zone 14422 

 turbulent viscosity limited to viscosity ratio of 1.000000e+05 in 105950 cells 

  iter  continuity  x-velocity  y-velocity  z-velocity      energy           k       omega  report-def     time/iter
   474  1.4474e+09  1.8222e-02  4.4007e-02  2.5702e-02  4.0593e-02  9.9716e-01  4.9810e-01 -1.4655e+05  0:00:13   26
 temperature limited to 1.000000e+00 in 76 cells on zone 14422 in domain 1
  temperature limited to 5.000000e+03 in 9 cells on zone 14422 in domain 1
 
 absolute pressure limited to 5.000000e+10 in 114548 cells on zone 14422 

 turbulent viscosity limited to viscosity ratio of 1.000000e+05 in 106002 cells 
   475  1.5721e+09  1.7115e-02  4.0507e-02  2.7822e-02  3.9327e-02  9.9768e-01  4.9817e-01 -1.5505e+05  0:00:13   25
 temperature limited to 1.000000e+00 in 246 cells on zone 14422 in domain 1
  temperature limited to 5.000000e+03 in 13 cells on zone 14422 in domain 1
 
 absolute pressure limited to 5.000000e+10 in 114562 cells on zone 14422 

 turbulent viscosity limited to viscosity ratio of 1.000000e+05 in 106124 cells 
   476  1.6219e+09  1.5944e-02  3.7817e-02  3.1992e-02  3.6968e-02  9.9983e-01  4.9976e-01 -1.6314e+05  0:00:12   24
 temperature limited to 1.000000e+00 in 302 cells on zone 14422 in domain 1
  temperature limited to 5.000000e+03 in 22 cells on zone 14422 in domain 1
  temperature limited to 1.000000e+00 on 2 faces

 absolute pressure limited to 5.000000e+10 in 114543 cells on zone 14422 

 turbulent viscosity limited to viscosity ratio of 1.000000e+05 in 106386 cells 
   477  1.5816e+09  1.4538e-02  3.4526e-02  3.0607e-02  4.2254e-02  9.9909e-01  4.9944e-01 -1.7007e+05  0:00:12   23
 temperature limited to 1.000000e+00 in 88 cells on zone 14422 in domain 1
  temperature limited to 5.000000e+03 in 42 cells on zone 14422 in domain 1
  temperature limited to 1.000000e+00 on 2 faces

 absolute pressure limited to 5.000000e+10 in 114536 cells on zone 14422 

 turbulent viscosity limited to viscosity ratio of 1.000000e+05 in 106705 cells 
   478  1.6955e+09  1.5620e-02  3.7182e-02  2.9133e-02  4.2289e-02  9.9580e-01  4.9854e-01 -1.7940e+05  0:00:11   22
 temperature limited to 1.000000e+00 in 336 cells on zone 14422 in domain 1
  temperature limited to 5.000000e+03 in 78 cells on zone 14422 in domain 1
 
 absolute pressure limited to 5.000000e+10 in 114540 cells on zone 14422 

 turbulent viscosity limited to viscosity ratio of 1.000000e+05 in 106710 cells 
   479  1.8834e+09  1.5917e-02  3.7642e-02  2.9775e-02  3.9199e-02  9.8989e-01  4.9642e-01 -1.6693e+05  0:00:11   21
 temperature limited to 1.000000e+00 in 454 cells on zone 14422 in domain 1
  temperature limited to 5.000000e+03 in 144 cells on zone 14422 in domain 1
 
 absolute pressure limited to 5.000000e+10 in 114541 cells on zone 14422 

 turbulent viscosity limited to viscosity ratio of 1.000000e+05 in 106940 cells 
   480  1.8326e+09  1.5313e-02  3.7072e-02  2.8101e-02  3.9749e-02  9.9386e-01  4.9519e-01 -1.7450e+05  0:00:10   20
 temperature limited to 1.000000e+00 in 500 cells on zone 14422 in domain 1
  temperature limited to 5.000000e+03 in 150 cells on zone 14422 in domain 1
  temperature limited to 5.000000e+03 on 2 faces

 absolute pressure limited to 5.000000e+10 in 114567 cells on zone 14422 

 turbulent viscosity limited to viscosity ratio of 1.000000e+05 in 106902 cells 
   481  1.9873e+09  1.6245e-02  3.9096e-02  2.8128e-02  3.8475e-02  9.9786e-01  4.9775e-01 -1.8179e+05  0:00:10   19
 temperature limited to 1.000000e+00 in 733 cells on zone 14422 in domain 1
  temperature limited to 5.000000e+03 in 208 cells on zone 14422 in domain 1
  temperature limited to 5.000000e+03 on 6 faces

 absolute pressure limited to 5.000000e+10 in 114519 cells on zone 14422 

 turbulent viscosity limited to viscosity ratio of 1.000000e+05 in 106899 cells 
   482  2.1806e+09  1.6282e-02  3.9678e-02  2.8709e-02  3.5568e-02  9.9278e-01  4.9557e-01 -1.8761e+05  0:00:09   18
 temperature limited to 1.000000e+00 in 988 cells on zone 14422 in domain 1
  temperature limited to 5.000000e+03 on 4 faces

 absolute pressure limited to 5.000000e+10 in 114543 cells on zone 14422 

 turbulent viscosity limited to viscosity ratio of 1.000000e+05 in 106713 cells 
   483  2.0903e+09  1.5275e-02  3.7027e-02  3.0514e-02  3.7147e-02  9.8418e-01  4.9111e-01 -1.9154e+05  0:00:09   17
 temperature limited to 1.000000e+00 in 1269 cells on zone 14422 in domain 1
 
 absolute pressure limited to 5.000000e+10 in 114534 cells on zone 14422 

 turbulent viscosity limited to viscosity ratio of 1.000000e+05 in 106442 cells 
   484  2.3203e+09  1.5843e-02  3.8204e-02  2.8897e-02  3.6454e-02  9.6475e-01  4.8187e-01 -1.9238e+05  0:00:08   16
 temperature limited to 1.000000e+00 in 1610 cells on zone 14422 in domain 1
 
 absolute pressure limited to 5.000000e+10 in 114500 cells on zone 14422 

 turbulent viscosity limited to viscosity ratio of 1.000000e+05 in 105895 cells 

  iter  continuity  x-velocity  y-velocity  z-velocity      energy           k       omega  report-def     time/iter
   485  2.4684e+09  1.6151e-02  3.9729e-02  2.8190e-02  3.8353e-02  9.6045e-01  4.7852e-01 -1.8996e+05  0:00:08   15
 temperature limited to 1.000000e+00 in 614 cells on zone 14422 in domain 1
 
 absolute pressure limited to 5.000000e+10 in 114504 cells on zone 14422 

 turbulent viscosity limited to viscosity ratio of 1.000000e+05 in 105168 cells 
   486  2.3458e+09  1.7018e-02  4.1700e-02  2.6485e-02  3.7537e-02  9.8610e-01  4.8577e-01 -1.9390e+05  0:00:07   14
 temperature limited to 1.000000e+00 in 1249 cells on zone 14422 in domain 1
 
 absolute pressure limited to 5.000000e+10 in 114547 cells on zone 14422 

 turbulent viscosity limited to viscosity ratio of 1.000000e+05 in 104310 cells 
   487  2.5534e+09  1.7024e-02  4.0974e-02  2.8375e-02  3.6037e-02  9.9750e-01  4.9552e-01 -1.7827e+05  0:00:07   13
 temperature limited to 1.000000e+00 in 1541 cells on zone 14422 in domain 1
 
 absolute pressure limited to 5.000000e+10 in 114519 cells on zone 14422 

 turbulent viscosity limited to viscosity ratio of 1.000000e+05 in 103805 cells 
   488  2.8244e+09  1.6868e-02  4.1542e-02  2.9983e-02  3.6751e-02  9.9969e-01  4.9946e-01 -1.6360e+05  0:00:06   12

 absolute pressure limited to 5.000000e+10 in 114505 cells on zone 14422 

 turbulent viscosity limited to viscosity ratio of 1.000000e+05 in 103322 cells 
   489  3.0532e+09  1.7741e-02  4.4319e-02  3.4266e-02  3.9084e-02  9.9720e-01  4.9800e-01 -1.4526e+05  0:00:06   11
 temperature limited to 1.000000e+00 in 2 cells on zone 14422 in domain 1
 
 absolute pressure limited to 5.000000e+10 in 114517 cells on zone 14422 

 turbulent viscosity limited to viscosity ratio of 1.000000e+05 in 103285 cells 
   490  3.8053e+09  1.7363e-02  4.3615e-02  3.4061e-02  3.5591e-02  9.9368e-01  4.9550e-01 -1.2404e+05  0:00:05   10
 temperature limited to 1.000000e+00 in 3 cells on zone 14422 in domain 1
 
 absolute pressure limited to 5.000000e+10 in 114533 cells on zone 14422 

 turbulent viscosity limited to viscosity ratio of 1.000000e+05 in 103748 cells 
   491  4.0623e+09  1.7045e-02  4.3231e-02  3.3237e-02  3.2697e-02  9.8928e-01  4.9302e-01 -1.0862e+05  0:00:05    9
 temperature limited to 1.000000e+00 in 4 cells on zone 14422 in domain 1
 
 absolute pressure limited to 5.000000e+10 in 114555 cells on zone 14422 

 turbulent viscosity limited to viscosity ratio of 1.000000e+05 in 104477 cells 
   492  4.1426e+09  1.6569e-02  4.2134e-02  3.2535e-02  3.0064e-02  9.9921e-01  4.9942e-01 -1.0010e+05  0:00:04    8
 temperature limited to 1.000000e+00 in 3 cells on zone 14422 in domain 1
  temperature limited to 5.000000e+03 in 72 cells on zone 14422 in domain 1
 
 absolute pressure limited to 5.000000e+10 in 114550 cells on zone 14422 

 turbulent viscosity limited to viscosity ratio of 1.000000e+05 in 104699 cells 
   493  4.8912e+09  1.6480e-02  4.1850e-02  3.1995e-02  2.6228e-02  9.9561e-01  4.9836e-01 -9.4677e+04  0:00:04    7
 temperature limited to 1.000000e+00 in 1 cells on zone 14422 in domain 1
  temperature limited to 5.000000e+03 in 92 cells on zone 14422 in domain 1
 
 absolute pressure limited to 5.000000e+10 in 114515 cells on zone 14422 

 turbulent viscosity limited to viscosity ratio of 1.000000e+05 in 104987 cells 
   494  4.7127e+09  1.5257e-02  3.8605e-02  2.9232e-02  2.6547e-02  9.8195e-01  4.9603e-01 -8.9155e+04  0:00:03    6
 temperature limited to 1.000000e+00 in 1 cells on zone 14422 in domain 1
  temperature limited to 5.000000e+03 in 774 cells on zone 14422 in domain 1
 
 absolute pressure limited to 5.000000e+10 in 114509 cells on zone 14422 

 turbulent viscosity limited to viscosity ratio of 1.000000e+05 in 105026 cells 
   495  4.4617e+09  1.5421e-02  3.8892e-02  2.7926e-02  2.8806e-02  9.5562e-01  4.9258e-01 -8.4473e+04  0:00:03    5
 temperature limited to 1.000000e+00 in 15 cells on zone 14422 in domain 1
  temperature limited to 5.000000e+03 in 179 cells on zone 14422 in domain 1
 
 absolute pressure limited to 5.000000e+10 in 114475 cells on zone 14422 

 turbulent viscosity limited to viscosity ratio of 1.000000e+05 in 105238 cells 

  iter  continuity  x-velocity  y-velocity  z-velocity      energy           k       omega  report-def     time/iter
   496  4.9953e+09  1.5744e-02  3.9616e-02  3.1018e-02  3.1067e-02  9.9427e-01  4.9277e-01 -8.1035e+04  0:00:02    4
 temperature limited to 1.000000e+00 in 16 cells on zone 14422 in domain 1
  temperature limited to 5.000000e+03 in 30 cells on zone 14422 in domain 1
 
 absolute pressure limited to 5.000000e+10 in 114480 cells on zone 14422 

 turbulent viscosity limited to viscosity ratio of 1.000000e+05 in 105073 cells 
   497  5.3268e+09  1.6391e-02  4.1543e-02  3.2937e-02  2.8149e-02  9.9751e-01  4.9510e-01 -7.8619e+04  0:00:02    3
 temperature limited to 1.000000e+00 in 132 cells on zone 14422 in domain 1
  temperature limited to 5.000000e+03 in 207 cells on zone 14422 in domain 1
 
 absolute pressure limited to 5.000000e+10 in 114507 cells on zone 14422 

 turbulent viscosity limited to viscosity ratio of 1.000000e+05 in 105315 cells 
   498  5.4345e+09  1.6331e-02  4.1718e-02  3.3133e-02  3.1237e-02  9.9811e-01  4.9737e-01 -7.5910e+04  0:00:01    2
 temperature limited to 1.000000e+00 in 129 cells on zone 14422 in domain 1
  temperature limited to 5.000000e+03 in 39 cells on zone 14422 in domain 1
 
 absolute pressure limited to 5.000000e+10 in 114485 cells on zone 14422 

 turbulent viscosity limited to viscosity ratio of 1.000000e+05 in 105199 cells 
   499  6.2559e+09  1.7989e-02  4.6466e-02  3.6064e-02  2.8908e-02  9.9905e-01  4.9872e-01 -7.4604e+04  0:00:01    1
 temperature limited to 1.000000e+00 in 150 cells on zone 14422 in domain 1
  temperature limited to 5.000000e+03 in 109 cells on zone 14422 in domain 1
 
 absolute pressure limited to 5.000000e+10 in 114497 cells on zone 14422 

 turbulent viscosity limited to viscosity ratio of 1.000000e+05 in 105340 cells 
   500  6.9508e+09  1.7640e-02  4.5781e-02  3.6523e-02  2.5874e-02  9.9834e-01  4.9745e-01 -7.0625e+04  0:00:00    0

> Halting due to end of file on input.
Auto-Transcript Stop Time:  12:14:45, 06 Nov 2024 
Total Transcript Time: 4 Minute 45 Second.

Automatic transcript closed.
