/opt/crc/a/ansys/2024R1/v241/fluent/fluent24.1.0/bin/fluent -r24.1.0 3ddp -t4 -g
/opt/crc/a/ansys/2024R1/v241/fluent/fluent24.1.0/cortex/lnamd64/cortex.24.1.0 -f fluent -g (fluent "3ddp -pshmem  -host -r24.1.0 -t4 -mpi=intel -path/opt/crc/a/ansys/2024R1/v241/fluent -ssh")

Opening input/output transcript to file "/tmp/926184.1.long/worker-241760-1299527/task.1/fluent-20241106-121305-1306861.trn".
Auto-Transcript Start Time:  12:13:05, 06 Nov 2024 
/opt/crc/a/ansys/2024R1/v241/fluent/fluent24.1.0/bin/fluent -r24.1.0 3ddp -pshmem -host -t4 -mpi=intel -path/opt/crc/a/ansys/2024R1/v241/fluent -ssh -cx d32cepyc220.crc.nd.edu:34393:35991
Starting /opt/crc/a/ansys/2024R1/v241/fluent/fluent24.1.0/lnamd64/3ddp_host/fluent.24.1.0 host -cx d32cepyc220.crc.nd.edu:34393:35991 "(list (rpsetvar (QUOTE parallel/function) "fluent 3ddp -flux -node -r24.1.0 -t4 -pshmem -mpi=intel -ssh") (rpsetvar (QUOTE parallel/rhost) "") (rpsetvar (QUOTE parallel/ruser) "") (rpsetvar (QUOTE parallel/nprocs_string) "4") (rpsetvar (QUOTE parallel/auto-spawn?) #t) (rpsetvar (QUOTE parallel/trace-level) 0) (rpsetvar (QUOTE parallel/remote-shell) 1) (rpsetvar (QUOTE parallel/path) "/opt/crc/a/ansys/2024R1/v241/fluent") (rpsetvar (QUOTE parallel/hostsfile) "") (rpsetvar (QUOTE gpuapp/devices) ""))"

              Welcome to ANSYS Fluent 2024 R1

              Copyright 1987-2024 ANSYS, Inc. All Rights Reserved.
              Unauthorized use, distribution or duplication is prohibited.
              This product is subject to U.S. laws governing export and re-export.
              For full Legal Notice, see documentation.

Build Time: Nov 22 2023 10:07:25 EST  Build Id: 10184  
 
Connected License Server List:	7504@linux5-lic.crc.nd.edu

     --------------------------------------------------------------
     This is an academic version of ANSYS FLUENT. Usage of this product
     license is limited to the terms and conditions specified in your ANSYS
     license form, additional terms section.
     --------------------------------------------------------------
Host spawning Node 0 on machine "d32cepyc220.crc.nd.edu" (unix).
/opt/crc/a/ansys/2024R1/v241/fluent/fluent24.1.0/bin/fluent -r24.1.0 3ddp -flux -node -t4 -pshmem -mpi=intel -ssh -mport 10.32.91.207:10.32.91.207:43879:0
Starting /opt/crc/a/ansys/2024R1/v241/fluent/fluent24.1.0/multiport/mpi/lnamd64/intel2021/bin/mpirun --rsh=ssh -f /tmp/fluent-appfile.etracey.1307299 -genv I_MPI_FABRICS shm -genv FLUENT_ARCH lnamd64 -genv I_MPI_DEBUG 0 -genv I_MPI_ADJUST_GATHERV 3 -genv I_MPI_ADJUST_ALLREDUCE 2 -genv I_MPI_PLATFORM auto -genv PYTHONHOME /opt/crc/a/ansys/2024R1/v241/fluent/fluent24.1.0/../../commonfiles/CPython/3_10/linx64/Release/python -genv FLUENT_PROD_DIR /opt/crc/a/ansys/2024R1/v241/fluent/fluent24.1.0 -genv FLUENT_AFFINITY 0 -genv I_MPI_PIN enable -genv KMP_AFFINITY disabled -n 4 /opt/crc/a/ansys/2024R1/v241/fluent/fluent24.1.0/lnamd64/3ddp_node/fluent_mpi.24.1.0 node -mpiw intel -pic shmem -mport 10.32.91.207:10.32.91.207:43879:0

------------------------------------------------------------------------------------
ID    Hostname              Core  O.S.      PID              Vendor                
------------------------------------------------------------------------------------
n0-3  d32cepyc220.crc.nd.e  4/64  Linux-64  1307377-1307380  AMD EPYC 7543 32-Core 
host  d32cepyc220.crc.nd.e        Linux-64  1307058          AMD EPYC 7543 32-Core 

MPI Option Selected: intel
Selected system interconnect: shared-memory
------------------------------------------------------------------------------------


Initializing SGE
Done.
Cleanup script file is /tmp/926184.1.long/worker-241760-1299527/task.1/cleanup-fluent-d32cepyc220.crc.nd.edu-1307058.sh
Key Behavioral Changes:
Fluent Guided Meshing Workflows: 
Workflow template files (.wft) are now saved by default whenever the mesh is saved. You can change the automatic creation of .wft files in Preferences. 
Journaling: 
When Ansys Fluent encounters an invalid input in a journal file that is being replayed, it now raises an error condition and aborts the journal processing. 
Turbulence: 
The value of kappa used in the Spalart-Allmaras model for interior terms was inconsistent with the reference publications of the model. Fluent historically used a value of 0.4187, but to produce results consistent with the published model, the value should be 0.41. This issue was first addressed in a previous Fluent version and access to the kappa value was given in the GUI while keeping the old default of 0.4187. In Fluent 2024 R1, the default value is now changed to 0.41. 
Turbomachinery: 
For Blade Film Cooling, you can now specify stationary holes on the surfaces of a moving/rotating cell zone in transient cases. 
Boundaries previously referred to as "casings" in the Turbo Topology definition are now referred to as "shrouds." 
Density-Based Solver: 
The High Speed Numerics have been updated to increase the robustness of the Roe-FDS numerical flux against shock-instabilities and the carbuncle phenomenon. This modification may produce a slight solution change for cases combining Roe-FDS and HSN. 
Multiphase Models: 
Modeling of open channel flows in conjunction with the translation moving reference frame (MRF) has been improved resulting in more accurate and stable solution. In addition, a solution methodology has been suggested to provide better stability for high-speed hull simulations. 
Parallel Processing: 
Using dynamic process spawning now requires that you manually specify the interconnect as -pethernet for shared memory or distributed memory without InfiniBand, and -pib.ofed for distributed memory over InfiniBand. 
Refer to the Ansys, Inc. Release Notes for a full listing of the new features included in Ansys Fluent 2024 R1. 
 +------------------------------------------------------------------+
 |                    ANSYS Product Improvement                     |
 |                                                                  |
 |   ANSYS Product Improvement Program helps improve ANSYS          |
 |   products. Participating in this program is like filling out a  |
 |   survey. Without interrupting your work, the software reports   |
 |   anonymous usage information such as errors, machine and        |
 |   solver statistics, features used, etc. to ANSYS. We never      |
 |   use the data to identify or contact you.                       |
 |   The data does NOT contain:                                     |
 |   - Any personally identifiable information including names,     |
 |     IP addresses, file names, part names, etc.                   |
 |   - Any information about your geometry or design specific       |
 |     inputs.                                                      |
 |   You can stop participation at any time. To change your         |
 |   selection go to Help >> ANSYS Product Improvement Program      |
 |   in the GUI.                                                    |
 |   For more information about the ANSYS Privacy Policy, please    |
 |   check: http://www.ansys.com/privacy                            |
 |                                                                  |
 +------------------------------------------------------------------+

> Fast-loading "/opt/crc/a/ansys/2024R1/v241/fluent/fluent24.1.0/addons/afd/lib/hdfio.bin"
Done.
WARNING: Rank:0 Machine d32cepyc220.crc.nd.edu has 69 % of RAM filled with file buffer caches.
This can cause potential performance issues. Please use -cflush flag to flush the cache. 


Reading from d32cepyc220.crc.nd.edu:"/tmp/926184.1.long/worker-241760-1299527/task.1/case.cas.h5" in NODE0 mode ...
  Reading mesh ...
      114744 cells,     1 cell zone  ...
         114744 polyhedra cells,  zone id: 14422
      659728 faces,     7 face zones ...
           5706 polygonal symmetry faces,  zone id: 41
           5819 polygonal symmetry faces,  zone id: 42
            454 polygonal pressure-far-field faces,  zone id: 43
            464 polygonal pressure-far-field faces,  zone id: 44
           1889 polygonal pressure-far-field faces,  zone id: 45
          12654 polygonal wall faces,  zone id: 46
         632742 polygonal interior faces,  zone id: 14421
      481363 nodes,     1 node zone  ...
  Done.


Building...
     mesh
	auto partitioning mesh by Metis (fast),
	distributing mesh
		parts....,
		faces....,
		nodes....,
		cells....,
        bandwidth reduction using Reverse Cuthill-McKee: 29024/2203 = 13.1748
  Reading boundary layer flags ...
  Done.

     materials,
     interface,
     domains,
	mixture
     zones,
	symmetry1
	symmetry2
	outlet
	inlet
	farfield
	launchvehicle
	interior--flowfield
	flowfield
     parallel,
Done.

> adjoint/                parallel/               server/
define/                 parametric-study/       solve/
display/                plot/                   surface/
exit                    preferences/            turbo-workflow/
file/                   print-license-usage     views/
mesh/                   report/

> 
> adjoint/                parallel/               server/
define/                 parametric-study/       solve/
display/                plot/                   surface/
exit                    preferences/            turbo-workflow/
file/                   print-license-usage     views/
mesh/                   report/

> 
> adjoint/                parallel/               server/
define/                 parametric-study/       solve/
display/                plot/                   surface/
exit                    preferences/            turbo-workflow/
file/                   print-license-usage     views/
mesh/                   report/

> air is a fluid

Density
no data required.


> adjoint/                parallel/               server/
define/                 parametric-study/       solve/
display/                plot/                   surface/
exit                    preferences/            turbo-workflow/
file/                   print-license-usage     views/
mesh/                   report/

> (farfield inlet outlet)

> (farfield inlet outlet)

> (farfield inlet outlet)

> adjoint/                parallel/               server/
define/                 parametric-study/       solve/
display/                plot/                   surface/
exit                    preferences/            turbo-workflow/
file/                   print-license-usage     views/
mesh/                   report/

> (launchvehicle)

> adjoint/                parallel/               server/
define/                 parametric-study/       solve/
display/                plot/                   surface/
exit                    preferences/            turbo-workflow/
file/                   print-license-usage     views/
mesh/                   report/

> 
> 
> 
> 
> 
> 
> adjoint/                parallel/               server/
define/                 parametric-study/       solve/
display/                plot/                   surface/
exit                    preferences/            turbo-workflow/
file/                   print-license-usage     views/
mesh/                   report/

> 
> 
> 
> adjoint/                parallel/               server/
define/                 parametric-study/       solve/
display/                plot/                   surface/
exit                    preferences/            turbo-workflow/
file/                   print-license-usage     views/
mesh/                   report/

> 
> 
> 
> adjoint/                parallel/               server/
define/                 parametric-study/       solve/
display/                plot/                   surface/
exit                    preferences/            turbo-workflow/
file/                   print-license-usage     views/
mesh/                   report/

> 
> adjoint/                parallel/               server/
define/                 parametric-study/       solve/
display/                plot/                   surface/
exit                    preferences/            turbo-workflow/
file/                   print-license-usage     views/
mesh/                   report/

> 
Initialize using the hybrid initialization method.

Checking case topology... 
-This case has multiple farfield bc 
-Case will be initialized with constant parameters

	iter		scalar-0

	1		1.000000e+00
	2		5.766649e-04
	3		1.189617e-04
	4		2.146338e-05
	5		4.494573e-06
	6		9.355957e-07
	7		1.906738e-07
	8		3.869273e-08
	9		8.071432e-09
	10		1.756922e-09

Hybrid initialization is done.

Note: Settings to improve the robustness of pathline and
      particle tracking have been automatically enabled.


> 
  iter  continuity  x-velocity  y-velocity  z-velocity      energy           k       omega  report-def     time/iter
     1  1.0000e+00  1.4036e-06  2.3707e-06  2.2907e-06  3.0975e-08  9.5473e-01  4.8744e-01  1.6528e+00  0:05:27  499
     2  6.3982e-01  1.1690e-06  1.4032e-06  1.3459e-06  2.1046e-08  9.2584e-01  4.7986e-01  1.9808e+00  0:05:32  498
     3  4.7404e-01  1.0118e-06  8.2459e-07  7.9418e-07  1.5436e-08  8.6380e-01  4.6766e-01  1.7228e+00  0:05:37  497
     4  3.5455e-01  8.9752e-07  4.4075e-07  4.2301e-07  1.1632e-08  7.5649e-01  4.4794e-01  1.4722e+00  0:05:37  496
     5  3.4235e-01  9.2308e-07  2.8938e-07  2.8267e-07  1.0939e-08  4.7705e-01  4.1636e-01  1.3227e+00  0:05:38  495
     6  3.4130e-01  8.5616e-07  2.1395e-07  2.0032e-07  1.0256e-08  1.8040e-01  3.6787e-01  1.2249e+00  0:05:37  494
     7  4.3163e-01  1.0988e-06  2.1500e-07  1.9611e-07  1.1111e-08  5.5808e-02  3.0272e-01  1.1572e+00  0:05:35  493
     8  5.4105e-01  1.1928e-06  2.5593e-07  2.4690e-07  1.2633e-08  1.9271e-02  2.2039e-01  1.1122e+00  0:05:37  492
     9  7.5835e-01  1.7724e-06  3.1951e-07  3.0040e-07  1.4109e-08  1.5336e-02  1.4141e-01  1.0739e+00  0:05:39  491
    10  1.0533e+00  2.2674e-06  4.2659e-07  4.2611e-07  1.8709e-08  1.8822e-02  7.9523e-02  1.0469e+00  0:05:44  490
    11  1.5538e+00  3.4353e-06  6.2305e-07  6.0786e-07  2.3441e-08  1.6708e-02  4.5073e-02  1.0257e+00  0:05:47  489

  iter  continuity  x-velocity  y-velocity  z-velocity      energy           k       omega  report-def     time/iter
    12  2.2852e+00  4.8750e-06  8.9961e-07  8.8784e-07  3.4295e-08  1.8365e-02  2.6881e-02  1.0115e+00  0:05:47  488
    13  3.4278e+00  7.3685e-06  1.3517e-06  1.3339e-06  4.7412e-08  1.4905e-02  1.6049e-02  1.0002e+00  0:05:45  487
    14  5.1569e+00  1.0931e-05  2.0204e-06  1.9795e-06  7.1440e-08  1.5285e-02  1.4462e-02  9.9556e-01  0:05:46  486
    15  7.7728e+00  1.6517e-05  3.0398e-06  2.9986e-06  1.0383e-07  1.3070e-02  9.1087e-03  9.8999e-01  0:05:49  485
    16  1.1810e+01  2.4903e-05  4.6015e-06  4.5078e-06  1.5996e-07  1.3737e-02  1.1906e-02  9.9254e-01  0:05:49  484
    17  1.7802e+01  3.7654e-05  6.9266e-06  6.8162e-06  2.3318e-07  1.2391e-02  7.5215e-03  9.8759e-01  0:05:49  483
    18  2.7239e+01  5.7126e-05  1.0561e-05  1.0355e-05  3.6910e-07  1.4699e-02  1.2507e-02  9.9707e-01  0:05:48  482
    19  4.0758e+01  8.6350e-05  1.5753e-05  1.5481e-05  5.2452e-07  1.4235e-02  7.6765e-03  9.8679e-01  0:05:47  481
    20  6.3111e+01  1.3145e-04  2.4406e-05  2.3933e-05  8.7327e-07  2.0161e-02  1.5905e-02  1.0078e+00  0:05:49  480
    21  9.2594e+01  1.9808e-04  3.5564e-05  3.4940e-05  1.1504e-06  2.2140e-02  1.0512e-02  9.8311e-01  0:05:47  479
    22  1.4689e+02  3.0310e-04  5.6677e-05  5.5542e-05  2.1513e-06  3.5203e-02  2.4596e-02  1.0293e+00  0:05:46  478

  iter  continuity  x-velocity  y-velocity  z-velocity      energy           k       omega  report-def     time/iter
    23  2.0631e+02  4.5263e-04  7.9024e-05  7.7691e-05  2.3802e-06  4.4784e-02  2.0527e-02  9.6989e-01  0:05:43  477
    24  3.4471e+02  6.9953e-04  1.3438e-04  1.3142e-04  5.7535e-06  7.1495e-02  4.5118e-02  1.0740e+00  0:05:43  476
    25  4.4189e+02  1.0267e-03  1.7090e-04  1.6868e-04  4.3506e-06  9.6071e-02  4.5941e-02  9.3771e-01  0:05:44  475
    26  8.3516e+02  1.6130e-03  3.2921e-04  3.2032e-04  1.9532e-05  1.5795e-01  9.3452e-02  1.1856e+00  0:05:44  474
    27  8.9443e+02  2.4108e-03  3.7716e-04  3.7042e-04  7.9720e-06  2.0238e-01  1.0233e-01  8.8466e-01  0:05:44  473
    28  1.9008e+03  3.6899e-03  8.5785e-04  8.2489e-04  5.7489e-05  3.1438e-01  1.7107e-01  1.3529e+00  0:05:43  472
    29  1.6693e+03  5.4223e-03  8.5329e-04  8.7736e-04  2.5949e-05  3.3871e-01  1.8357e-01  7.7616e-01  0:05:36  471
    30  3.3748e+03  7.8585e-03  2.1138e-03  2.0386e-03  1.7035e-04  4.3746e-01  2.1088e-01  1.3647e+00  0:05:38  470
    31  2.3945e+03  9.0633e-03  1.7775e-03  1.6491e-03  9.6480e-05  4.0683e-01  2.3711e-01  5.3199e-01  0:05:33  469
    32  4.7298e+03  1.5086e-02  3.9662e-03  3.8268e-03  2.0898e-04  5.7968e-01  2.9389e-01  1.2459e+00  0:05:28  468
    33  2.9968e+03  1.0859e-02  2.5663e-03  2.4610e-03  1.3123e-04  4.6386e-01  2.7384e-01  3.8702e-01  0:05:22  467

  iter  continuity  x-velocity  y-velocity  z-velocity      energy           k       omega  report-def     time/iter
    34  6.2084e+03  2.0021e-02  4.8968e-03  4.7665e-03  1.0128e-03  6.0072e-01  3.1281e-01  1.1319e+00  0:05:18  466
    35  3.3587e+03  1.6428e-02  4.1960e-03  3.2592e-03  2.3139e-04  4.8160e-01  2.8279e-01  2.2029e-01  0:05:14  465
    36  6.7556e+03  2.7210e-02  5.5354e-03  5.4440e-03  1.4579e-03  5.6804e-01  3.0341e-01  9.8125e-01  0:05:11  464
    37  3.6062e+03  2.4305e-02  4.2671e-03  4.3082e-03  4.0134e-04  5.9093e-01  3.8207e-01  8.4611e-03  0:05:10  463
    38  7.5780e+03  3.6089e-02  6.6037e-03  6.6489e-03  4.6167e-04  7.4981e-01  4.0371e-01  9.2367e-01  0:05:10  462
    39  4.1106e+03  1.6929e-02  4.8301e-03  4.7142e-03  5.3033e-04  5.4975e-01  3.5100e-01  8.8656e-02  0:05:11  461
    40  7.6009e+03  3.7262e-02  6.5224e-03  6.9259e-03  5.4603e-04  4.1336e-01  2.3738e-01  7.4613e-01  0:05:10  460
    41  3.9600e+03  2.1986e-02  5.5475e-03  5.3951e-03  5.9271e-04  4.7438e-01  2.9195e-01 -3.7733e-01  0:05:08  459
    42  7.9031e+03  4.7656e-02  8.1755e-03  8.4721e-03  6.8304e-04  4.2629e-01  2.5302e-01  3.1282e-01  0:05:07  458
    43  4.6084e+03  2.3352e-02  5.9853e-03  6.2856e-03  1.6251e-03  3.9701e-01  2.8394e-01 -2.0348e-01  0:05:05  457
    44  8.2263e+03  6.1001e-02  9.7846e-03  9.6394e-03  1.0626e-03  4.7717e-01  3.1160e-01  3.5749e-01  0:05:02  456

  iter  continuity  x-velocity  y-velocity  z-velocity      energy           k       omega  report-def     time/iter
    45  4.9920e+03  3.1559e-02  8.4082e-03  8.3805e-03  2.7688e-03  8.8867e-01  6.6011e-01 -5.1859e-01  0:05:01  455
    46  7.8402e+03  6.4479e-02  1.1285e-02  1.4178e-02  1.2733e-03  8.2450e-01  4.5616e-01 -2.4097e-01  0:05:01  454
    47  5.6029e+03  4.3062e-02  1.0747e-02  9.7145e-03  1.3615e-03  8.3291e-01  4.6128e-01 -6.3387e-01  0:05:03  453
    48  8.5474e+03  7.0571e-02  1.3290e-02  1.1851e-02  1.7007e-03  7.7937e-01  4.7911e-01 -3.3921e-01  0:05:03  452
    49  6.1577e+03  5.0835e-02  1.3459e-02  1.2726e-02  1.1909e-03  7.0042e-01  3.8066e-01 -8.7915e-01  0:05:02  451
    50  8.0619e+03  7.7397e-02  1.4398e-02  1.3182e-02  2.0475e-03  4.5620e-01  3.2112e-01 -7.9650e-01  0:05:01  450
    51  7.4174e+03  6.8281e-02  1.3825e-02  1.3252e-02  1.8965e-03  4.9585e-01  3.4634e-01 -9.8308e-01  0:04:59  449
    52  8.6606e+03  9.3280e-02  1.7866e-02  1.6880e-02  8.2046e-03  6.5435e-01  3.8977e-01 -7.6762e-01  0:04:57  448
    53  8.7467e+03  1.1209e-01  1.6271e-02  1.5160e-02  3.3690e-03  8.1615e-01  5.3337e-01 -1.2041e+00  0:04:56  447
    54  9.3719e+03  1.0219e-01  2.0776e-02  1.6040e-02  3.3017e-03  9.7575e-01  5.6016e-01 -1.1587e+00  0:04:56  446
    55  1.0177e+04  9.8480e-02  1.8272e-02  1.6089e-02  4.4954e-03  8.8552e-01  4.6863e-01 -8.4601e-01  0:04:57  445

  iter  continuity  x-velocity  y-velocity  z-velocity      energy           k       omega  report-def     time/iter
    56  9.4554e+03  9.5602e-02  2.1156e-02  1.8631e-02  4.0229e-03  7.8677e-01  4.6731e-01 -9.7029e-01  0:04:58  444
    57  1.1473e+04  1.0672e-01  1.8275e-02  1.7005e-02  5.2390e-03  7.7514e-01  4.8301e-01 -8.3930e-01  0:04:58  443
    58  1.0559e+04  1.0468e-01  2.0329e-02  1.8470e-02  4.5005e-03  8.3830e-01  3.9122e-01 -9.0309e-01  0:04:56  442
    59  1.3060e+04  1.0704e-01  2.0198e-02  2.0196e-02  1.0690e-02  1.4334e+00  8.1409e-01 -2.5131e-01  0:04:55  441
    60  1.2747e+04  1.2111e-01  2.0454e-02  1.8936e-02  5.3801e-03  9.4094e-01  4.8773e-01 -5.5315e-01  0:04:53  440
    61  1.3654e+04  1.1013e-01  2.0648e-02  2.0075e-02  8.6156e-03  1.1102e+00  5.9547e-01 -1.8414e-01  0:04:52  439
    62  1.4327e+04  1.3026e-01  2.3639e-02  2.0891e-02  5.6220e-03  9.5334e-01  4.8727e-01 -1.6522e-01  0:04:52  438
    63  1.3572e+04  1.0682e-01  2.2053e-02  2.0229e-02  4.8301e-03  8.9061e-01  4.8789e-01  1.5262e-01  0:04:52  437
    64  1.4457e+04  9.8741e-02  2.1358e-02  2.0406e-02  7.2049e-03  1.2579e+00  6.0963e-01  4.4241e-01  0:04:53  436
    65  1.4815e+04  1.1805e-01  2.0868e-02  2.0715e-02  7.9682e-03  9.8398e-01  5.0643e-01  1.3921e-01  0:04:53  435
    66  1.5874e+04  1.1522e-01  2.5216e-02  2.2318e-02  7.0885e-03  1.0410e+00  5.4107e-01  2.9517e-01  0:04:53  434

  iter  continuity  x-velocity  y-velocity  z-velocity      energy           k       omega  report-def     time/iter
    67  1.7043e+04  1.1969e-01  2.6030e-02  2.3475e-02  7.4318e-03  9.8268e-01  5.0712e-01  3.8307e-01  0:04:52  433
    68  1.7112e+04  1.1682e-01  2.3168e-02  2.1776e-02  8.1621e-03  9.6365e-01  4.9719e-01  9.9780e-02  0:04:49  432
    69  1.7190e+04  1.3055e-01  2.8213e-02  2.8002e-02  8.1525e-03  1.0411e+00  5.2119e-01 -1.0205e-01  0:04:47  431
    70  1.8649e+04  1.2328e-01  2.9226e-02  2.6780e-02  2.9847e-02  9.4758e-01  4.8900e-01 -7.5859e-02  0:04:47  430
    71  2.1568e+04  1.5899e-01  2.5982e-02  2.2603e-02  8.5327e-03  1.0835e+00  5.4437e-01 -3.3547e-02  0:04:47  429
    72  2.1083e+04  1.1275e-01  2.6366e-02  2.7560e-02  1.3751e-02  1.0039e+00  5.4605e-01 -4.7197e-02  0:04:47  428
    73  2.3059e+04  1.3343e-01  2.6187e-02  2.7386e-02  1.7663e-02  1.0300e+00  5.6924e-01 -8.0490e-01  0:04:50  427
    74  2.3916e+04  1.1403e-01  2.2267e-02  2.7471e-02  1.1264e-02  9.8325e-01  5.0524e-01 -6.4730e-01  0:04:49  426
    75  2.7286e+04  1.3884e-01  2.9433e-02  2.8911e-02  1.4292e-02  1.2574e+00  6.5333e-01  3.4948e-01  0:04:47  425
    76  2.8831e+04  1.2237e-01  3.1346e-02  3.3165e-02  2.4031e-02  9.8331e-01  5.0889e-01  4.8007e-01  0:04:45  424
    77  2.8474e+04  1.4671e-01  2.7834e-02  2.6746e-02  1.1653e-02  9.8488e-01  5.1263e-01  1.4508e+00  0:04:42  423

  iter  continuity  x-velocity  y-velocity  z-velocity      energy           k       omega  report-def     time/iter
    78  3.0747e+04  1.3279e-01  2.9654e-02  2.9354e-02  1.2631e-02  9.9234e-01  5.3162e-01  3.7540e-01  0:04:41  422
    79  3.0613e+04  1.3239e-01  2.9134e-02  2.7999e-02  1.6703e-02  1.0979e+00  5.6838e-01  2.8755e+00  0:04:41  421
    80  3.2819e+04  1.3871e-01  2.9522e-02  3.1099e-02  1.0347e-02  1.0147e+00  5.2266e-01  2.2208e+00  0:04:42  420
    81  3.6121e+04  1.3399e-01  3.0623e-02  3.1339e-02  2.6779e-02  9.9231e-01  5.0925e-01  2.8517e+00  0:04:43  419
    82  3.4601e+04  1.3606e-01  2.6381e-02  3.1948e-02  1.7931e-02  9.9246e-01  5.1075e-01  2.3548e+00  0:04:42  418
    83  3.9705e+04  1.3861e-01  2.9857e-02  3.0742e-02  1.9257e-02  1.1087e+00  5.5163e-01  5.7107e-01  0:04:40  417
    84  3.8510e+04  1.2256e-01  2.7696e-02  2.8356e-02  1.3882e-02  9.7623e-01  5.0388e-01  2.9842e+00  0:04:39  416
    85  4.1625e+04  1.2983e-01  2.8406e-02  2.8398e-02  1.9188e-02  1.0558e+00  5.5117e-01  8.6439e-01  0:04:40  415
    86  4.2873e+04  1.2028e-01  2.6258e-02  2.8361e-02  1.8010e-02  9.8928e-01  5.1449e-01  2.2863e+00  0:04:40  414
    87  4.5925e+04  1.2373e-01  2.9081e-02  2.9416e-02  1.5995e-02  1.1420e+00  5.9293e-01  2.9536e+00  0:04:38  413
    88  4.7954e+04  1.1951e-01  2.8891e-02  2.9368e-02  1.9595e-02  9.7531e-01  4.9853e-01  4.4129e+00  0:04:35  412

  iter  continuity  x-velocity  y-velocity  z-velocity      energy           k       omega  report-def     time/iter
    89  5.2102e+04  1.1533e-01  2.9872e-02  3.0421e-02  1.5060e-02  1.0493e+00  5.4406e-01  6.9829e-01  0:04:33  411
    90  5.3806e+04  1.0215e-01  2.6905e-02  2.8568e-02  2.4218e-02  1.0189e+00  5.2410e-01  9.6513e-03  0:04:33  410
    91  5.5668e+04  1.0379e-01  2.6859e-02  2.5051e-02  2.1897e-02  1.0146e+00  5.3049e-01  1.8385e+00  0:04:33  409
    92  6.5937e+04  1.0716e-01  2.9755e-02  2.9081e-02  1.9137e-02  1.0351e+00  5.3642e-01  7.5564e-01  0:04:34  408
    93  7.3862e+04  9.6741e-02  2.8297e-02  2.9798e-02  3.0486e-02  9.6713e-01  5.0739e-01 -9.7866e-01  0:04:34  407
    94  7.8567e+04  9.3850e-02  2.4890e-02  2.6510e-02  2.1747e-02  1.0247e+00  5.4648e-01  9.1610e-02  0:04:34  406
    95  8.8552e+04  8.5180e-02  2.6619e-02  2.5250e-02  2.5900e-02  9.7128e-01  5.2188e-01 -6.6687e-02  0:04:34  405
    96  1.0156e+05  8.0954e-02  2.6071e-02  2.7425e-02  2.7089e-02  9.5203e-01  5.1885e-01 -6.6021e-01  0:04:34  404
    97  1.2124e+05  7.5672e-02  2.6854e-02  2.6997e-02  1.9191e-02  8.9429e-01  4.9217e-01  3.2493e+00  0:04:33  403
    98  1.5297e+05  5.9917e-02  2.6552e-02  2.7261e-02  4.2660e-02  8.7048e-01  5.0859e-01  6.7643e+00  0:04:32  402
    99  2.0041e+05  6.4978e-02  2.6228e-02  2.4907e-02  3.0174e-02  8.1998e-01  4.5021e-01  1.3331e+01  0:04:27  401

  iter  continuity  x-velocity  y-velocity  z-velocity      energy           k       omega  report-def     time/iter
   100  2.8199e+05  5.2957e-02  2.4290e-02  2.5658e-02  2.4697e-02  7.3936e-01  4.6307e-01  1.9146e+01  0:04:28  400
   101  4.1360e+05  3.7939e-02  2.4422e-02  2.7519e-02  1.9792e-02  6.3747e-01  3.8894e-01  2.4034e+01  0:04:23  399
   102  6.6095e+05  2.7411e-02  2.3711e-02  2.4154e-02  2.2196e-02  5.2945e-01  4.7239e-01  3.0206e+01  0:04:19  398
   103  1.1110e+06  2.6561e-02  2.5147e-02  2.3944e-02  1.9583e-02  4.7872e-01  4.8225e-01  3.6096e+01  0:04:16  397
   104  1.8978e+06  2.3735e-02  2.8036e-02  2.6172e-02  1.8671e-02  4.7427e-01  4.7563e-01  4.0448e+01  0:04:14  396
   105  3.2488e+06  2.2614e-02  3.1301e-02  2.9155e-02  1.7226e-02  4.7561e-01  4.5571e-01  3.2446e+01  0:04:14  395
   106  5.4755e+06  2.3106e-02  3.3283e-02  3.1249e-02  1.4554e-02  4.9312e-01  4.2553e-01  8.0739e+00  0:04:13  394
   107  9.0456e+06  2.2736e-02  3.3149e-02  3.1669e-02  1.1583e-02  4.1342e-01  4.0079e-01 -3.4940e+01  0:04:12  393
   108  1.4712e+07  2.2185e-02  3.1562e-02  3.0646e-02  8.6736e-03  3.2802e-01  3.7407e-01 -1.2326e+02  0:04:12  392
   109  2.3883e+07  2.1093e-02  2.8818e-02  2.8179e-02  6.9797e-03  2.6294e-01  4.0079e-01 -3.0749e+02  0:04:11  391
   110  3.8585e+07  2.1410e-02  2.5592e-02  2.5110e-02  5.6025e-03  2.5408e-01  3.9385e-01 -6.7278e+02  0:04:09  390

  iter  continuity  x-velocity  y-velocity  z-velocity      energy           k       omega  report-def     time/iter
   111  6.2204e+07  2.1324e-02  2.2666e-02  2.2134e-02  4.5861e-03  2.5614e-01  3.8634e-01 -1.3430e+03  0:04:08  389

 turbulent viscosity limited to viscosity ratio of 1.000000e+05 in 390 cells 
   112  1.0014e+08  2.0898e-02  2.0235e-02  1.9713e-02  3.9019e-03  2.6008e-01  3.8397e-01 -2.5548e+03  0:04:06  388

 turbulent viscosity limited to viscosity ratio of 1.000000e+05 in 781 cells 
   113  1.6060e+08  2.0606e-02  1.8448e-02  1.8203e-02  3.2582e-03  2.7984e-01  3.6774e-01 -4.5799e+03  0:04:04  387

 turbulent viscosity limited to viscosity ratio of 1.000000e+05 in 1052 cells 
   114  2.5753e+08  1.9679e-02  1.7604e-02  1.7248e-02  2.9408e-03  2.8561e-01  3.6267e-01 -7.7781e+03  0:04:02  386

 turbulent viscosity limited to viscosity ratio of 1.000000e+05 in 1276 cells 
   115  4.1175e+08  1.8925e-02  1.7360e-02  1.6944e-02  2.8892e-03  2.8398e-01  3.5998e-01 -1.3011e+04  0:04:00  385

 turbulent viscosity limited to viscosity ratio of 1.000000e+05 in 1888 cells 
   116  6.5524e+08  1.8408e-02  1.7529e-02  1.7024e-02  3.2456e-03  2.9693e-01  3.6718e-01 -2.0947e+04  0:03:58  384

 turbulent viscosity limited to viscosity ratio of 1.000000e+05 in 5261 cells 
   117  1.0474e+09  1.8302e-02  1.8097e-02  1.7643e-02  3.9171e-03  7.3771e-01  4.2390e-01 -3.2521e+04  0:03:58  383

 turbulent viscosity limited to viscosity ratio of 1.000000e+05 in 21000 cells 
   118  1.6715e+09  1.8108e-02  1.9153e-02  1.8160e-02  4.2057e-03  4.8387e-01  3.8542e-01 -4.7299e+04  0:03:57  382

 turbulent viscosity limited to viscosity ratio of 1.000000e+05 in 34629 cells 
   119  2.7016e+09  1.7860e-02  2.0184e-02  1.9075e-02  4.4377e-03  3.8687e-01  3.7470e-01 -6.8746e+04  0:03:57  381

 turbulent viscosity limited to viscosity ratio of 1.000000e+05 in 41887 cells 
   120  4.3831e+09  1.7583e-02  2.1230e-02  1.9759e-02  4.4860e-03  5.8109e-01  3.9633e-01 -9.9348e+04  0:03:57  380

 turbulent viscosity limited to viscosity ratio of 1.000000e+05 in 47768 cells 
   121  7.1520e+09  1.7545e-02  2.2297e-02  2.0411e-02  4.2590e-03  3.9233e-01  3.7643e-01 -1.4769e+05  0:03:56  379

 turbulent viscosity limited to viscosity ratio of 1.000000e+05 in 53394 cells 

  iter  continuity  x-velocity  y-velocity  z-velocity      energy           k       omega  report-def     time/iter
   122  1.1682e+10  1.7307e-02  2.2002e-02  2.0852e-02  3.7263e-03  4.1686e-01  3.8904e-01 -2.4515e+05  0:03:55  378

 turbulent viscosity limited to viscosity ratio of 1.000000e+05 in 58459 cells 
   123  1.9111e+10  1.7388e-02  2.1379e-02  2.0002e-02  3.5859e-03  3.5585e-01  3.8496e-01 -4.3034e+05  0:03:56  377

 turbulent viscosity limited to viscosity ratio of 1.000000e+05 in 62834 cells 
   124  3.0878e+10  1.7377e-02  2.0369e-02  1.8847e-02  3.2372e-03  3.0508e-01  3.8829e-01 -7.0830e+05  0:03:56  376

 turbulent viscosity limited to viscosity ratio of 1.000000e+05 in 73909 cells 
   125  4.9822e+10  1.7989e-02  1.8791e-02  1.7551e-02  6.6386e-03  3.5121e-01  4.1091e-01 -1.1637e+06  0:04:01  375

 absolute pressure limited to 5.000000e+10 in 2 cells on zone 14422 

 turbulent viscosity limited to viscosity ratio of 1.000000e+05 in 75341 cells 
   126  7.8124e+10  1.9826e-02  2.0501e-02  1.9202e-02  7.3209e-03  8.8855e-01  4.5707e-01 -1.5737e+06  0:03:59  374

 absolute pressure limited to 5.000000e+10 in 82 cells on zone 14422 

 turbulent viscosity limited to viscosity ratio of 1.000000e+05 in 79867 cells 
   127  1.2617e+11  1.3516e-02  1.8945e-02  1.8353e-02  8.4926e-03  7.4853e-01  4.9035e-01 -2.9857e+06  0:04:03  373

 absolute pressure limited to 5.000000e+10 in 114701 cells on zone 14422 

 turbulent viscosity limited to viscosity ratio of 1.000000e+05 in 79310 cells 
   128  1.9472e+11  2.1484e-02  2.1140e-02  2.0243e-02  9.2046e-03  5.0273e-01  3.6365e-01 -8.2314e+04  0:04:01  372

 absolute pressure limited to 5.000000e+10 in 114737 cells on zone 14422 

 turbulent viscosity limited to viscosity ratio of 1.000000e+05 in 81620 cells 
   129  2.7834e+11  1.1585e-02  3.3045e-02  3.3628e-02  1.7973e-02  4.5878e-01  3.3244e-01 -8.1824e+04  0:04:04  371

 absolute pressure limited to 5.000000e+10 in 114731 cells on zone 14422 

 turbulent viscosity limited to viscosity ratio of 1.000000e+05 in 79267 cells 
   130  2.3644e+11  2.2661e-02  4.0876e-02  4.0610e-02  8.9601e-03  5.9728e-01  2.5658e-01 -8.5281e+04  0:04:00  370

 absolute pressure limited to 5.000000e+10 in 114738 cells on zone 14422 

 turbulent viscosity limited to viscosity ratio of 1.000000e+05 in 82387 cells 
   131  1.6882e+11  1.2097e-02  4.3760e-02  4.2850e-02  1.4150e-02  7.5585e-01  3.5648e-01 -5.7338e+04  0:03:57  369

 absolute pressure limited to 5.000000e+10 in 114613 cells on zone 14422 

 turbulent viscosity limited to viscosity ratio of 1.000000e+05 in 85193 cells 
   132  2.1030e+11  1.2519e-02  5.9439e-02  5.9880e-02  4.8198e-02  1.0009e+00  5.0065e-01 -7.5101e+04  0:03:56  368

 absolute pressure limited to 5.000000e+10 in 113963 cells on zone 14422 

 turbulent viscosity limited to viscosity ratio of 1.000000e+05 in 96559 cells 

  iter  continuity  x-velocity  y-velocity  z-velocity      energy           k       omega  report-def     time/iter
   133  1.5459e+11  1.1022e-02  6.8661e-02  6.7438e-02  5.5231e-02  1.0003e+00  5.0009e-01 -7.4436e+04  0:03:57  367

 absolute pressure limited to 5.000000e+10 in 114514 cells on zone 14422 

 turbulent viscosity limited to viscosity ratio of 1.000000e+05 in 96869 cells 
   134  1.6329e+11  4.8211e-02  6.9363e-02  7.0219e-02  3.7492e-02  9.9986e-01  4.9988e-01 -8.6761e+04  0:04:00  366

 absolute pressure limited to 5.000000e+10 in 114391 cells on zone 14422 

 turbulent viscosity limited to viscosity ratio of 1.000000e+05 in 96545 cells 
   135  1.2827e+11  4.9375e-02  6.6095e-02  5.7278e-02  2.7309e-02  9.9964e-01  4.9985e-01 -7.1635e+04  0:04:02  365

 absolute pressure limited to 5.000000e+10 in 114525 cells on zone 14422 

 turbulent viscosity limited to viscosity ratio of 1.000000e+05 in 95903 cells 
   136  1.1263e+11  3.4890e-02  5.3112e-02  4.9227e-02  2.8821e-02  1.0005e+00  4.9998e-01 -4.3200e+04  0:04:02  364

 absolute pressure limited to 5.000000e+10 in 114457 cells on zone 14422 

 turbulent viscosity limited to viscosity ratio of 1.000000e+05 in 95951 cells 
   137  1.3079e+11  3.0920e-02  7.0794e-02  7.0662e-02  3.1628e-02  1.0045e+00  5.0049e-01 -3.5560e+04  0:04:02  363

 absolute pressure limited to 5.000000e+10 in 114455 cells on zone 14422 

 turbulent viscosity limited to viscosity ratio of 1.000000e+05 in 94259 cells 
   138  1.7519e+11  3.7354e-02  6.2352e-02  5.8982e-02  3.0044e-02  1.0333e+00  5.0340e-01 -5.0915e+04  0:04:03  362

 absolute pressure limited to 5.000000e+10 in 114447 cells on zone 14422 

 turbulent viscosity limited to viscosity ratio of 1.000000e+05 in 93223 cells 
   139  1.7443e+11  3.5847e-02  6.4775e-02  6.3957e-02  3.1050e-02  1.0066e+00  5.0265e-01 -6.0029e+04  0:04:02  361

 absolute pressure limited to 5.000000e+10 in 114587 cells on zone 14422 

 turbulent viscosity limited to viscosity ratio of 1.000000e+05 in 94668 cells 
   140  2.0816e+11  3.1466e-02  6.8678e-02  7.3081e-02  3.3575e-02  1.0034e+00  5.0146e-01 -5.6382e+04  0:04:01  360

 absolute pressure limited to 5.000000e+10 in 114494 cells on zone 14422 

 turbulent viscosity limited to viscosity ratio of 1.000000e+05 in 98543 cells 
   141  2.4422e+11  2.8149e-02  7.0302e-02  7.2586e-02  3.7087e-02  1.0014e+00  5.0074e-01 -4.5074e+04  0:04:00  359

 absolute pressure limited to 5.000000e+10 in 114478 cells on zone 14422 

 turbulent viscosity limited to viscosity ratio of 1.000000e+05 in 97929 cells 
   142  2.3138e+11  2.5425e-02  5.6791e-02  5.8090e-02  3.0730e-02  1.0003e+00  4.9991e-01 -4.8386e+04  0:04:05  358

 absolute pressure limited to 5.000000e+10 in 114545 cells on zone 14422 

 turbulent viscosity limited to viscosity ratio of 1.000000e+05 in 99931 cells 
   143  2.4799e+11  2.4044e-02  6.0812e-02  6.0635e-02  3.0132e-02  9.9914e-01  4.9903e-01 -4.1810e+04  0:03:53  357

 absolute pressure limited to 5.000000e+10 in 114472 cells on zone 14422 

 turbulent viscosity limited to viscosity ratio of 1.000000e+05 in 100086 cells 

  iter  continuity  x-velocity  y-velocity  z-velocity      energy           k       omega  report-def     time/iter
   144  2.6628e+11  2.1366e-02  6.0814e-02  6.1412e-02  2.8463e-02  9.9994e-01  4.9896e-01 -4.6315e+04  0:03:53  356

 absolute pressure limited to 5.000000e+10 in 114473 cells on zone 14422 

 turbulent viscosity limited to viscosity ratio of 1.000000e+05 in 100464 cells 
   145  2.5798e+11  2.2229e-02  5.6037e-02  5.8761e-02  3.0127e-02  1.0012e+00  5.0015e-01 -4.1877e+04  0:04:11  355

 absolute pressure limited to 5.000000e+10 in 114512 cells on zone 14422 

 turbulent viscosity limited to viscosity ratio of 1.000000e+05 in 100705 cells 
   146  2.7526e+11  2.4248e-02  5.4575e-02  5.9157e-02  2.8597e-02  1.0000e+00  4.9952e-01 -4.1127e+04  0:03:58  354

 absolute pressure limited to 5.000000e+10 in 114470 cells on zone 14422 

 turbulent viscosity limited to viscosity ratio of 1.000000e+05 in 101142 cells 
   147  3.1070e+11  2.2365e-02  5.7700e-02  5.9917e-02  2.7640e-02  1.0003e+00  4.9985e-01 -3.5259e+04  0:03:56  353

 absolute pressure limited to 5.000000e+10 in 114451 cells on zone 14422 

 turbulent viscosity limited to viscosity ratio of 1.000000e+05 in 101355 cells 
   148  3.0296e+11  1.8024e-02  5.3631e-02  5.7506e-02  2.9009e-02  1.0005e+00  4.9999e-01 -3.8466e+04  0:03:54  352

 absolute pressure limited to 5.000000e+10 in 114505 cells on zone 14422 

 turbulent viscosity limited to viscosity ratio of 1.000000e+05 in 101739 cells 
   149  3.3795e+11  1.8477e-02  5.1507e-02  5.8271e-02  2.7602e-02  1.0005e+00  4.9974e-01 -3.4745e+04  0:03:53  351

 absolute pressure limited to 5.000000e+10 in 114458 cells on zone 14422 

 turbulent viscosity limited to viscosity ratio of 1.000000e+05 in 101989 cells 
   150  3.7870e+11  1.8244e-02  5.2822e-02  5.6753e-02  2.5192e-02  1.0005e+00  4.9998e-01 -3.8196e+04  0:03:51  350

 absolute pressure limited to 5.000000e+10 in 114439 cells on zone 14422 

 turbulent viscosity limited to viscosity ratio of 1.000000e+05 in 102089 cells 
   151  3.6124e+11  1.6424e-02  5.0670e-02  5.4373e-02  2.5714e-02  9.9990e-01  4.9920e-01 -3.5580e+04  0:03:50  349

 absolute pressure limited to 5.000000e+10 in 114490 cells on zone 14422 

 turbulent viscosity limited to viscosity ratio of 1.000000e+05 in 102307 cells 
   152  3.9724e+11  1.7123e-02  5.1101e-02  5.5925e-02  2.7270e-02  9.9990e-01  4.9910e-01 -3.6807e+04  0:03:49  348

 absolute pressure limited to 5.000000e+10 in 114415 cells on zone 14422 

 turbulent viscosity limited to viscosity ratio of 1.000000e+05 in 102313 cells 
   153  4.3682e+11  1.5798e-02  5.7205e-02  5.5681e-02  2.6521e-02  1.0018e+00  4.9946e-01 -3.4238e+04  0:03:48  347

 absolute pressure limited to 5.000000e+10 in 114449 cells on zone 14422 

 turbulent viscosity limited to viscosity ratio of 1.000000e+05 in 102486 cells 
   154  4.4521e+11  1.4216e-02  5.1094e-02  5.5847e-02  2.7439e-02  1.0038e+00  4.9918e-01 -3.5235e+04  0:03:47  346

 absolute pressure limited to 5.000000e+10 in 114469 cells on zone 14422 

 turbulent viscosity limited to viscosity ratio of 1.000000e+05 in 102613 cells 

  iter  continuity  x-velocity  y-velocity  z-velocity      energy           k       omega  report-def     time/iter
   155  5.0521e+11  1.4753e-02  5.2665e-02  5.6014e-02  2.7319e-02  9.9953e-01  4.9783e-01 -3.4537e+04  0:03:46  345

 absolute pressure limited to 5.000000e+10 in 114507 cells on zone 14422 

 turbulent viscosity limited to viscosity ratio of 1.000000e+05 in 102847 cells 
   156  5.6643e+11  1.4020e-02  5.0460e-02  5.7845e-02  4.0375e-02  9.9999e-01  4.9834e-01 -3.6540e+04  0:03:42  344

 absolute pressure limited to 5.000000e+10 in 114641 cells on zone 14422 

 turbulent viscosity limited to viscosity ratio of 1.000000e+05 in 103254 cells 
   157  7.0749e+11  1.3822e-02  4.7610e-02  5.3321e-02  3.2462e-02  9.9660e-01  4.9528e-01 -3.0238e+04  0:03:39  343

 absolute pressure limited to 5.000000e+10 in 114672 cells on zone 14422 

 turbulent viscosity limited to viscosity ratio of 1.000000e+05 in 103510 cells 
   158  8.9063e+11  1.1176e-02  5.1348e-02  5.4986e-02  2.5071e-02  9.9810e-01  4.9780e-01 -3.8045e+04  0:03:36  342

 absolute pressure limited to 5.000000e+10 in 114685 cells on zone 14422 

 turbulent viscosity limited to viscosity ratio of 1.000000e+05 in 103510 cells 
   159  9.7448e+11  1.0675e-02  4.9933e-02  5.2003e-02  1.8678e-02  9.8952e-01  4.9370e-01 -3.1191e+04  0:03:34  341

 absolute pressure limited to 5.000000e+10 in 114679 cells on zone 14422 

 turbulent viscosity limited to viscosity ratio of 1.000000e+05 in 103717 cells 
   160  9.4321e+11  1.1012e-02  4.6801e-02  4.7709e-02  1.6482e-02  9.9265e-01  4.9403e-01 -3.6573e+04  0:03:32  340

 absolute pressure limited to 5.000000e+10 in 114669 cells on zone 14422 

 turbulent viscosity limited to viscosity ratio of 1.000000e+05 in 103791 cells 
   161  9.3886e+11  1.1973e-02  4.5038e-02  4.5179e-02  1.6375e-02  9.8647e-01  4.9146e-01 -3.4419e+04  0:03:31  339

 absolute pressure limited to 5.000000e+10 in 114668 cells on zone 14422 

 turbulent viscosity limited to viscosity ratio of 1.000000e+05 in 103939 cells 
   162  9.1162e+11  1.0683e-02  4.4909e-02  4.4963e-02  1.5661e-02  9.6495e-01  4.8507e-01 -3.4880e+04  0:03:29  338

 absolute pressure limited to 5.000000e+10 in 114664 cells on zone 14422 

 turbulent viscosity limited to viscosity ratio of 1.000000e+05 in 104149 cells 
   163  8.5889e+11  9.2649e-03  4.5447e-02  4.5736e-02  1.8161e-02  9.6290e-01  4.8146e-01 -3.5227e+04  0:03:28  337

 absolute pressure limited to 5.000000e+10 in 114642 cells on zone 14422 

 turbulent viscosity limited to viscosity ratio of 1.000000e+05 in 104381 cells 
   164  8.8137e+11  8.8475e-03  4.8966e-02  5.0888e-02  1.9281e-02  9.6782e-01  4.7777e-01 -3.5261e+04  0:03:26  336

 absolute pressure limited to 5.000000e+10 in 114650 cells on zone 14422 

 turbulent viscosity limited to viscosity ratio of 1.000000e+05 in 104487 cells 
   165  9.0741e+11  7.9685e-03  5.2587e-02  5.2281e-02  1.9830e-02  9.5822e-01  4.6901e-01 -3.7280e+04  0:03:25  335

 absolute pressure limited to 5.000000e+10 in 114654 cells on zone 14422 

 turbulent viscosity limited to viscosity ratio of 1.000000e+05 in 104532 cells 

  iter  continuity  x-velocity  y-velocity  z-velocity      energy           k       omega  report-def     time/iter
   166  9.3860e+11  7.8129e-03  5.3088e-02  5.3504e-02  1.7839e-02  9.8876e-01  4.8679e-01 -3.6891e+04  0:03:23  334

 absolute pressure limited to 5.000000e+10 in 114669 cells on zone 14422 

 turbulent viscosity limited to viscosity ratio of 1.000000e+05 in 104529 cells 
   167  9.1472e+11  8.0987e-03  5.1078e-02  5.1283e-02  1.6814e-02  9.9509e-01  4.9485e-01 -3.8976e+04  0:03:22  333

 absolute pressure limited to 5.000000e+10 in 114645 cells on zone 14422 

 turbulent viscosity limited to viscosity ratio of 1.000000e+05 in 104570 cells 
   168  8.9294e+11  8.6738e-03  4.9608e-02  5.1741e-02  1.7420e-02  9.8342e-01  4.9010e-01 -4.2863e+04  0:03:21  332

 absolute pressure limited to 5.000000e+10 in 114657 cells on zone 14422 

 turbulent viscosity limited to viscosity ratio of 1.000000e+05 in 104663 cells 
   169  8.7316e+11  8.9384e-03  4.9665e-02  5.1989e-02  1.8357e-02  9.9556e-01  4.9563e-01 -4.3127e+04  0:03:20  331

 absolute pressure limited to 5.000000e+10 in 114662 cells on zone 14422 

 turbulent viscosity limited to viscosity ratio of 1.000000e+05 in 104999 cells 
   170  8.5177e+11  9.0563e-03  4.9697e-02  5.0877e-02  1.9324e-02  9.8416e-01  4.9160e-01 -4.3263e+04  0:03:19  330

 absolute pressure limited to 5.000000e+10 in 114658 cells on zone 14422 

 turbulent viscosity limited to viscosity ratio of 1.000000e+05 in 105764 cells 
   171  8.4787e+11  8.5127e-03  5.2292e-02  5.0417e-02  1.9769e-02  9.9153e-01  4.9281e-01 -4.3006e+04  0:03:18  329

 absolute pressure limited to 5.000000e+10 in 114648 cells on zone 14422 

 turbulent viscosity limited to viscosity ratio of 1.000000e+05 in 107540 cells 
   172  8.4816e+11  8.2237e-03  5.2678e-02  4.9893e-02  1.8434e-02  9.9842e-01  4.9834e-01 -4.1964e+04  0:03:17  328

 absolute pressure limited to 5.000000e+10 in 114655 cells on zone 14422 

 turbulent viscosity limited to viscosity ratio of 1.000000e+05 in 107982 cells 
   173  8.2276e+11  7.6767e-03  5.1112e-02  4.8885e-02  1.7651e-02  9.9360e-01  4.9646e-01 -4.3980e+04  0:03:16  327

 absolute pressure limited to 5.000000e+10 in 114651 cells on zone 14422 

 turbulent viscosity limited to viscosity ratio of 1.000000e+05 in 108052 cells 
   174  8.0426e+11  8.8528e-03  4.9650e-02  4.7776e-02  1.8756e-02  9.8999e-01  4.9475e-01 -4.6709e+04  0:03:16  326

 absolute pressure limited to 5.000000e+10 in 114639 cells on zone 14422 

 turbulent viscosity limited to viscosity ratio of 1.000000e+05 in 108054 cells 
   175  7.7549e+11  8.8475e-03  4.8505e-02  4.8124e-02  1.8912e-02  9.9844e-01  4.9829e-01 -4.6376e+04  0:03:15  325

 absolute pressure limited to 5.000000e+10 in 114638 cells on zone 14422 

 turbulent viscosity limited to viscosity ratio of 1.000000e+05 in 107962 cells 
   176  7.4050e+11  9.2287e-03  4.7428e-02  4.8442e-02  1.9321e-02  9.9410e-01  4.9657e-01 -4.5080e+04  0:03:14  324

 absolute pressure limited to 5.000000e+10 in 114645 cells on zone 14422 

 turbulent viscosity limited to viscosity ratio of 1.000000e+05 in 108001 cells 

  iter  continuity  x-velocity  y-velocity  z-velocity      energy           k       omega  report-def     time/iter
   177  7.1170e+11  9.0620e-03  4.8057e-02  4.7590e-02  2.0289e-02  9.9230e-01  4.9525e-01 -4.6354e+04  0:03:14  323

 absolute pressure limited to 5.000000e+10 in 114675 cells on zone 14422 

 turbulent viscosity limited to viscosity ratio of 1.000000e+05 in 108217 cells 
   178  7.3107e+11  1.0226e-02  4.8186e-02  4.8355e-02  1.8715e-02  9.9648e-01  4.9666e-01 -4.4478e+04  0:03:13  322

 absolute pressure limited to 5.000000e+10 in 114644 cells on zone 14422 

 turbulent viscosity limited to viscosity ratio of 1.000000e+05 in 108165 cells 
   179  6.9973e+11  9.0415e-03  4.7800e-02  4.6357e-02  1.7514e-02  9.9693e-01  4.9703e-01 -4.3081e+04  0:03:12  321

 absolute pressure limited to 5.000000e+10 in 114645 cells on zone 14422 

 turbulent viscosity limited to viscosity ratio of 1.000000e+05 in 108244 cells 
   180  6.4920e+11  9.0593e-03  4.7249e-02  4.4064e-02  1.9809e-02  9.9066e-01  4.9479e-01 -4.7411e+04  0:03:12  320

 absolute pressure limited to 5.000000e+10 in 114657 cells on zone 14422 

 turbulent viscosity limited to viscosity ratio of 1.000000e+05 in 108274 cells 
   181  6.3734e+11  1.0558e-02  4.7904e-02  4.5692e-02  1.9798e-02  9.8534e-01  4.9099e-01 -5.0363e+04  0:03:11  319

 absolute pressure limited to 5.000000e+10 in 114670 cells on zone 14422 

 turbulent viscosity limited to viscosity ratio of 1.000000e+05 in 108048 cells 
   182  6.1382e+11  1.0372e-02  4.8058e-02  4.4982e-02  2.1839e-02  9.9751e-01  4.9743e-01 -4.8863e+04  0:03:10  318

 absolute pressure limited to 5.000000e+10 in 114643 cells on zone 14422 

 turbulent viscosity limited to viscosity ratio of 1.000000e+05 in 107860 cells 
   183  5.8216e+11  9.8320e-03  4.9808e-02  4.8449e-02  2.1779e-02  9.9400e-01  4.9562e-01 -4.9701e+04  0:03:10  317

 absolute pressure limited to 5.000000e+10 in 114663 cells on zone 14422 

 turbulent viscosity limited to viscosity ratio of 1.000000e+05 in 108175 cells 
   184  6.0462e+11  1.1491e-02  4.8647e-02  4.9175e-02  2.1145e-02  9.9478e-01  4.9485e-01 -5.0544e+04  0:03:09  316

 absolute pressure limited to 5.000000e+10 in 114669 cells on zone 14422 

 turbulent viscosity limited to viscosity ratio of 1.000000e+05 in 108436 cells 
   185  6.0799e+11  1.1946e-02  4.6240e-02  4.8362e-02  1.9849e-02  9.9636e-01  4.9604e-01 -5.1636e+04  0:03:08  315

 absolute pressure limited to 5.000000e+10 in 114673 cells on zone 14422 

 turbulent viscosity limited to viscosity ratio of 1.000000e+05 in 108888 cells 
   186  5.7776e+11  1.0341e-02  4.5769e-02  4.6870e-02  2.0949e-02  9.9659e-01  4.9652e-01 -5.4940e+04  0:03:08  314

 absolute pressure limited to 5.000000e+10 in 114671 cells on zone 14422 

 turbulent viscosity limited to viscosity ratio of 1.000000e+05 in 109074 cells 
   187  5.6836e+11  1.1875e-02  4.6135e-02  4.5324e-02  2.0227e-02  9.9175e-01  4.9427e-01 -5.5829e+04  0:03:07  313

 absolute pressure limited to 5.000000e+10 in 114678 cells on zone 14422 

 turbulent viscosity limited to viscosity ratio of 1.000000e+05 in 109179 cells 

  iter  continuity  x-velocity  y-velocity  z-velocity      energy           k       omega  report-def     time/iter
   188  5.5795e+11  1.0864e-02  4.7339e-02  4.4609e-02  2.1887e-02  9.8952e-01  4.9255e-01 -5.1902e+04  0:03:06  312

 absolute pressure limited to 5.000000e+10 in 114674 cells on zone 14422 

 turbulent viscosity limited to viscosity ratio of 1.000000e+05 in 109248 cells 
   189  5.4377e+11  9.7365e-03  4.8094e-02  4.5080e-02  2.2723e-02  9.9447e-01  4.9417e-01 -5.5775e+04  0:03:05  311
 temperature limited to 5.000000e+03 in 7 cells on zone 14422 in domain 1
 
 absolute pressure limited to 5.000000e+10 in 114669 cells on zone 14422 

 turbulent viscosity limited to viscosity ratio of 1.000000e+05 in 109132 cells 
   190  5.5063e+11  1.1909e-02  4.7396e-02  4.5968e-02  2.2403e-02  9.8993e-01  4.9129e-01 -5.9073e+04  0:03:05  310
 temperature limited to 5.000000e+03 in 45 cells on zone 14422 in domain 1
 
 absolute pressure limited to 5.000000e+10 in 114677 cells on zone 14422 

 turbulent viscosity limited to viscosity ratio of 1.000000e+05 in 109134 cells 
   191  5.5525e+11  1.1487e-02  4.6437e-02  4.6912e-02  2.0020e-02  9.8351e-01  4.8770e-01 -6.0627e+04  0:03:04  309
 temperature limited to 5.000000e+03 in 64 cells on zone 14422 in domain 1
 
 absolute pressure limited to 5.000000e+10 in 114679 cells on zone 14422 

 turbulent viscosity limited to viscosity ratio of 1.000000e+05 in 108988 cells 
   192  5.5672e+11  1.1174e-02  4.4587e-02  4.4694e-02  2.0676e-02  9.7736e-01  4.8444e-01 -6.0677e+04  0:03:04  308
 temperature limited to 5.000000e+03 in 66 cells on zone 14422 in domain 1
 
 absolute pressure limited to 5.000000e+10 in 114670 cells on zone 14422 

 turbulent viscosity limited to viscosity ratio of 1.000000e+05 in 109087 cells 
   193  5.5719e+11  1.1315e-02  4.4946e-02  4.6646e-02  1.9130e-02  9.6570e-01  4.7769e-01 -6.1035e+04  0:03:03  307
 temperature limited to 5.000000e+03 in 73 cells on zone 14422 in domain 1
  temperature limited to 5.000000e+03 on 2 faces

 absolute pressure limited to 5.000000e+10 in 114677 cells on zone 14422 

 turbulent viscosity limited to viscosity ratio of 1.000000e+05 in 108986 cells 
   194  5.5891e+11  1.1615e-02  4.6102e-02  4.4491e-02  1.8600e-02  9.8400e-01  4.8640e-01 -6.3074e+04  0:03:03  306
 temperature limited to 5.000000e+03 in 48 cells on zone 14422 in domain 1
  temperature limited to 5.000000e+03 on 5 faces

 absolute pressure limited to 5.000000e+10 in 114663 cells on zone 14422 

 turbulent viscosity limited to viscosity ratio of 1.000000e+05 in 109036 cells 
   195  5.3892e+11  1.0256e-02  4.6892e-02  4.5650e-02  1.9207e-02  9.8434e-01  4.8524e-01 -6.4654e+04  0:03:02  305
 temperature limited to 5.000000e+03 on 3 faces

 absolute pressure limited to 5.000000e+10 in 114661 cells on zone 14422 

 turbulent viscosity limited to viscosity ratio of 1.000000e+05 in 109106 cells 
   196  5.1408e+11  1.0446e-02  4.6891e-02  4.6308e-02  2.1747e-02  9.4888e-01  4.7396e-01 -6.4150e+04  0:03:01  304

 absolute pressure limited to 5.000000e+10 in 114683 cells on zone 14422 

 turbulent viscosity limited to viscosity ratio of 1.000000e+05 in 109266 cells 
   197  5.1721e+11  1.1525e-02  4.6935e-02  4.6465e-02  2.2692e-02  9.9731e-01  4.9667e-01 -6.8931e+04  0:03:00  303

 absolute pressure limited to 5.000000e+10 in 114676 cells on zone 14422 

 turbulent viscosity limited to viscosity ratio of 1.000000e+05 in 109219 cells 
   198  5.3291e+11  1.2011e-02  4.9873e-02  4.7182e-02  2.1318e-02  9.9294e-01  4.9415e-01 -7.0590e+04  0:03:00  302

 absolute pressure limited to 5.000000e+10 in 114680 cells on zone 14422 

 turbulent viscosity limited to viscosity ratio of 1.000000e+05 in 109255 cells 

  iter  continuity  x-velocity  y-velocity  z-velocity      energy           k       omega  report-def     time/iter
   199  5.6765e+11  1.1986e-02  5.0777e-02  4.8941e-02  2.0530e-02  9.8921e-01  4.9123e-01 -7.5323e+04  0:02:59  301

 absolute pressure limited to 5.000000e+10 in 114675 cells on zone 14422 

 turbulent viscosity limited to viscosity ratio of 1.000000e+05 in 108999 cells 
   200  5.9625e+11  1.1372e-02  5.0288e-02  4.8498e-02  1.8808e-02  9.6431e-01  4.8301e-01 -7.4789e+04  0:02:59  300

 absolute pressure limited to 5.000000e+10 in 114674 cells on zone 14422 

 turbulent viscosity limited to viscosity ratio of 1.000000e+05 in 109054 cells 
   201  5.8846e+11  1.1693e-02  5.0127e-02  4.8598e-02  1.9577e-02  9.9293e-01  4.9374e-01 -7.5988e+04  0:02:58  299

 absolute pressure limited to 5.000000e+10 in 114667 cells on zone 14422 

 turbulent viscosity limited to viscosity ratio of 1.000000e+05 in 108939 cells 
   202  6.2761e+11  1.1241e-02  5.1276e-02  4.8816e-02  2.1623e-02  9.8886e-01  4.9139e-01 -7.6874e+04  0:02:57  298
 temperature limited to 5.000000e+03 in 94 cells on zone 14422 in domain 1
 
 absolute pressure limited to 5.000000e+10 in 114667 cells on zone 14422 

 turbulent viscosity limited to viscosity ratio of 1.000000e+05 in 109075 cells 
   203  6.4468e+11  1.0438e-02  5.0541e-02  5.0869e-02  2.0435e-02  9.9802e-01  4.9817e-01 -8.1111e+04  0:02:57  297
 temperature limited to 5.000000e+03 in 297 cells on zone 14422 in domain 1
 
 absolute pressure limited to 5.000000e+10 in 114661 cells on zone 14422 

 turbulent viscosity limited to viscosity ratio of 1.000000e+05 in 108924 cells 
   204  6.6455e+11  9.9751e-03  5.2842e-02  5.1770e-02  2.1284e-02  9.9155e-01  4.9640e-01 -8.0571e+04  0:02:56  296
 temperature limited to 5.000000e+03 in 396 cells on zone 14422 in domain 1
 
 absolute pressure limited to 5.000000e+10 in 114676 cells on zone 14422 

 turbulent viscosity limited to viscosity ratio of 1.000000e+05 in 109054 cells 
   205  6.9604e+11  8.8762e-03  5.2056e-02  5.2026e-02  2.0290e-02  9.9637e-01  4.9687e-01 -8.2554e+04  0:02:55  295
 temperature limited to 5.000000e+03 in 44 cells on zone 14422 in domain 1
 
 absolute pressure limited to 5.000000e+10 in 114688 cells on zone 14422 

 turbulent viscosity limited to viscosity ratio of 1.000000e+05 in 109037 cells 
   206  7.2277e+11  9.6943e-03  5.1499e-02  5.1104e-02  1.9448e-02  9.9269e-01  4.9448e-01 -7.4450e+04  0:02:55  294

 absolute pressure limited to 5.000000e+10 in 114686 cells on zone 14422 

 turbulent viscosity limited to viscosity ratio of 1.000000e+05 in 109235 cells 
   207  7.5607e+11  8.1270e-03  4.9882e-02  5.0264e-02  1.7947e-02  9.8870e-01  4.9185e-01 -7.4315e+04  0:02:54  293

 absolute pressure limited to 5.000000e+10 in 114673 cells on zone 14422 

 turbulent viscosity limited to viscosity ratio of 1.000000e+05 in 109237 cells 
   208  7.4991e+11  9.2405e-03  4.8669e-02  4.8343e-02  1.6383e-02  9.8651e-01  4.9018e-01 -7.4480e+04  0:02:54  292

 absolute pressure limited to 5.000000e+10 in 114676 cells on zone 14422 

 turbulent viscosity limited to viscosity ratio of 1.000000e+05 in 109322 cells 
   209  7.6609e+11  9.0673e-03  4.8138e-02  4.8442e-02  1.7518e-02  9.9032e-01  4.9295e-01 -7.7519e+04  0:02:53  291

 absolute pressure limited to 5.000000e+10 in 114672 cells on zone 14422 

 turbulent viscosity limited to viscosity ratio of 1.000000e+05 in 109351 cells 

  iter  continuity  x-velocity  y-velocity  z-velocity      energy           k       omega  report-def     time/iter
   210  7.9076e+11  9.6269e-03  5.0275e-02  5.0972e-02  1.7142e-02  9.7711e-01  4.8651e-01 -7.8901e+04  0:02:53  290
 temperature limited to 5.000000e+03 in 4 cells on zone 14422 in domain 1
 
 absolute pressure limited to 5.000000e+10 in 114674 cells on zone 14422 

 turbulent viscosity limited to viscosity ratio of 1.000000e+05 in 109492 cells 
   211  8.2940e+11  8.6099e-03  5.0326e-02  5.0487e-02  1.7504e-02  9.7384e-01  4.8097e-01 -7.9040e+04  0:02:52  289
 temperature limited to 5.000000e+03 in 33 cells on zone 14422 in domain 1
 
 absolute pressure limited to 5.000000e+10 in 114673 cells on zone 14422 

 turbulent viscosity limited to viscosity ratio of 1.000000e+05 in 109451 cells 
   212  8.7822e+11  8.2961e-03  5.0270e-02  5.1520e-02  1.8369e-02  9.7318e-01  4.7748e-01 -8.2504e+04  0:02:52  288
 temperature limited to 5.000000e+03 in 12 cells on zone 14422 in domain 1
 
 absolute pressure limited to 5.000000e+10 in 114657 cells on zone 14422 

 turbulent viscosity limited to viscosity ratio of 1.000000e+05 in 109475 cells 
   213  9.2409e+11  7.9537e-03  4.9653e-02  5.1676e-02  1.9036e-02  9.9966e-01  4.9961e-01 -8.5786e+04  0:02:51  287
 temperature limited to 5.000000e+03 in 9 cells on zone 14422 in domain 1
 
 absolute pressure limited to 5.000000e+10 in 114664 cells on zone 14422 

 turbulent viscosity limited to viscosity ratio of 1.000000e+05 in 109547 cells 
   214  9.3574e+11  8.3198e-03  5.0697e-02  5.0772e-02  1.7377e-02  9.9793e-01  4.9904e-01 -8.8553e+04  0:02:51  286

 absolute pressure limited to 5.000000e+10 in 114676 cells on zone 14422 

 turbulent viscosity limited to viscosity ratio of 1.000000e+05 in 109514 cells 
   215  9.9840e+11  8.0867e-03  5.1386e-02  5.1627e-02  1.6952e-02  9.9689e-01  4.9850e-01 -9.2152e+04  0:02:50  285

 absolute pressure limited to 5.000000e+10 in 114663 cells on zone 14422 

 turbulent viscosity limited to viscosity ratio of 1.000000e+05 in 109481 cells 
   216  1.0499e+12  8.0389e-03  5.1404e-02  5.0483e-02  1.5778e-02  9.9921e-01  4.9916e-01 -9.4515e+04  0:02:49  284
 temperature limited to 5.000000e+03 in 4 cells on zone 14422 in domain 1
 
 absolute pressure limited to 5.000000e+10 in 114692 cells on zone 14422 

 turbulent viscosity limited to viscosity ratio of 1.000000e+05 in 109534 cells 
   217  1.0945e+12  6.9978e-03  5.1151e-02  4.8258e-02  1.8578e-02  9.9610e-01  4.9786e-01 -9.8088e+04  0:02:49  283
 temperature limited to 5.000000e+03 in 4 cells on zone 14422 in domain 1
 
 absolute pressure limited to 5.000000e+10 in 114683 cells on zone 14422 

 turbulent viscosity limited to viscosity ratio of 1.000000e+05 in 109462 cells 
   218  1.1757e+12  7.7461e-03  5.2090e-02  4.8501e-02  1.9621e-02  9.8943e-01  4.9616e-01 -1.0122e+05  0:02:48  282
 temperature limited to 5.000000e+03 in 1 cells on zone 14422 in domain 1
 
 absolute pressure limited to 5.000000e+10 in 114655 cells on zone 14422 

 turbulent viscosity limited to viscosity ratio of 1.000000e+05 in 109427 cells 
   219  1.2289e+12  6.7106e-03  5.2246e-02  5.0245e-02  1.9726e-02  9.8811e-01  4.9309e-01 -1.0471e+05  0:02:48  281
 temperature limited to 5.000000e+03 in 6 cells on zone 14422 in domain 1
 
 absolute pressure limited to 5.000000e+10 in 114654 cells on zone 14422 

 turbulent viscosity limited to viscosity ratio of 1.000000e+05 in 109338 cells 
   220  1.3212e+12  6.5608e-03  5.1272e-02  5.1336e-02  1.9242e-02  9.8775e-01  4.9113e-01 -1.0920e+05  0:02:47  280
 temperature limited to 5.000000e+03 in 7 cells on zone 14422 in domain 1
 
 absolute pressure limited to 5.000000e+10 in 114672 cells on zone 14422 

 turbulent viscosity limited to viscosity ratio of 1.000000e+05 in 109461 cells 

  iter  continuity  x-velocity  y-velocity  z-velocity      energy           k       omega  report-def     time/iter
   221  1.4471e+12  6.7002e-03  4.8350e-02  5.2210e-02  1.8128e-02  9.9333e-01  4.9369e-01 -1.1237e+05  0:02:47  279
 temperature limited to 5.000000e+03 in 7 cells on zone 14422 in domain 1
 
 absolute pressure limited to 5.000000e+10 in 114650 cells on zone 14422 

 turbulent viscosity limited to viscosity ratio of 1.000000e+05 in 109427 cells 
   222  1.4877e+12  5.6254e-03  4.8982e-02  5.1806e-02  1.7129e-02  9.9577e-01  4.9592e-01 -1.1863e+05  0:02:47  278
 temperature limited to 5.000000e+03 in 1 cells on zone 14422 in domain 1
 
 absolute pressure limited to 5.000000e+10 in 114662 cells on zone 14422 

 turbulent viscosity limited to viscosity ratio of 1.000000e+05 in 109472 cells 
   223  1.5323e+12  6.1310e-03  4.9931e-02  5.0520e-02  1.7419e-02  9.9720e-01  4.9716e-01 -1.2084e+05  0:02:47  277
 temperature limited to 1.000000e+00 in 2 cells on zone 14422 in domain 1
  temperature limited to 5.000000e+03 in 3 cells on zone 14422 in domain 1
 
 absolute pressure limited to 5.000000e+10 in 114667 cells on zone 14422 

 turbulent viscosity limited to viscosity ratio of 1.000000e+05 in 109616 cells 
   224  1.5902e+12  6.2193e-03  4.9253e-02  5.0222e-02  1.9376e-02  9.9760e-01  4.9787e-01 -1.2626e+05  0:02:47  276
 temperature limited to 1.000000e+00 in 3 cells on zone 14422 in domain 1
 
 absolute pressure limited to 5.000000e+10 in 114658 cells on zone 14422 

 turbulent viscosity limited to viscosity ratio of 1.000000e+05 in 109660 cells 
   225  1.6502e+12  5.9737e-03  5.1516e-02  5.1361e-02  2.0004e-02  9.9667e-01  4.9766e-01 -1.3184e+05  0:02:46  275
 temperature limited to 1.000000e+00 in 3 cells on zone 14422 in domain 1
  temperature limited to 5.000000e+03 in 3 cells on zone 14422 in domain 1
 
 absolute pressure limited to 5.000000e+10 in 114675 cells on zone 14422 

 turbulent viscosity limited to viscosity ratio of 1.000000e+05 in 109666 cells 
   226  1.7017e+12  5.6117e-03  5.1901e-02  5.1797e-02  2.0629e-02  9.9385e-01  4.9625e-01 -1.3685e+05  0:02:45  274
 temperature limited to 1.000000e+00 in 3 cells on zone 14422 in domain 1
  temperature limited to 5.000000e+03 in 5 cells on zone 14422 in domain 1
 
 absolute pressure limited to 5.000000e+10 in 114657 cells on zone 14422 

 turbulent viscosity limited to viscosity ratio of 1.000000e+05 in 109729 cells 
   227  1.7537e+12  5.3977e-03  5.1468e-02  5.2844e-02  2.0617e-02  9.8138e-01  4.9164e-01 -1.4072e+05  0:02:44  273
 temperature limited to 1.000000e+00 in 4 cells on zone 14422 in domain 1
  temperature limited to 5.000000e+03 in 6 cells on zone 14422 in domain 1
 
 absolute pressure limited to 5.000000e+10 in 114638 cells on zone 14422 

 turbulent viscosity limited to viscosity ratio of 1.000000e+05 in 109712 cells 
   228  1.8494e+12  5.0483e-03  5.0737e-02  5.3910e-02  2.1111e-02  9.9571e-01  4.9575e-01 -1.4610e+05  0:02:44  272
 temperature limited to 1.000000e+00 in 6 cells on zone 14422 in domain 1
 
 absolute pressure limited to 5.000000e+10 in 114652 cells on zone 14422 

 turbulent viscosity limited to viscosity ratio of 1.000000e+05 in 109922 cells 
   229  1.9102e+12  5.4005e-03  4.7799e-02  5.5151e-02  1.9959e-02  9.8915e-01  4.9274e-01 -1.4990e+05  0:02:43  271
 temperature limited to 1.000000e+00 in 6 cells on zone 14422 in domain 1
 
 absolute pressure limited to 5.000000e+10 in 114673 cells on zone 14422 

 turbulent viscosity limited to viscosity ratio of 1.000000e+05 in 109854 cells 
   230  1.9753e+12  4.7869e-03  4.7642e-02  5.3556e-02  1.9031e-02  9.9001e-01  4.9157e-01 -1.5555e+05  0:02:42  270
 temperature limited to 1.000000e+00 in 6 cells on zone 14422 in domain 1
 
 absolute pressure limited to 5.000000e+10 in 114649 cells on zone 14422 

 turbulent viscosity limited to viscosity ratio of 1.000000e+05 in 109946 cells 
   231  1.9517e+12  4.8120e-03  4.6648e-02  5.2680e-02  1.8368e-02  9.7892e-01  4.8586e-01 -1.6044e+05  0:02:41  269
 temperature limited to 1.000000e+00 in 8 cells on zone 14422 in domain 1
 
 absolute pressure limited to 5.000000e+10 in 114656 cells on zone 14422 

 turbulent viscosity limited to viscosity ratio of 1.000000e+05 in 109891 cells 

  iter  continuity  x-velocity  y-velocity  z-velocity      energy           k       omega  report-def     time/iter
   232  1.9638e+12  4.9574e-03  4.6852e-02  5.0772e-02  1.8882e-02  9.7631e-01  4.8241e-01 -1.6672e+05  0:02:41  268
 temperature limited to 1.000000e+00 in 8 cells on zone 14422 in domain 1
 
 absolute pressure limited to 5.000000e+10 in 114637 cells on zone 14422 

 turbulent viscosity limited to viscosity ratio of 1.000000e+05 in 109969 cells 
   233  1.9092e+12  5.3347e-03  4.6410e-02  5.0123e-02  2.0126e-02  9.9548e-01  4.9522e-01 -1.7177e+05  0:02:40  267
 temperature limited to 1.000000e+00 in 8 cells on zone 14422 in domain 1
 
 absolute pressure limited to 5.000000e+10 in 114654 cells on zone 14422 

 turbulent viscosity limited to viscosity ratio of 1.000000e+05 in 109933 cells 
   234  1.9645e+12  5.1213e-03  4.9565e-02  5.0053e-02  2.0969e-02  9.9520e-01  4.9516e-01 -1.7972e+05  0:02:39  266
 temperature limited to 1.000000e+00 in 9 cells on zone 14422 in domain 1
 
 absolute pressure limited to 5.000000e+10 in 114649 cells on zone 14422 

 turbulent viscosity limited to viscosity ratio of 1.000000e+05 in 109970 cells 
   235  2.1177e+12  5.2520e-03  4.9906e-02  5.0706e-02  2.1447e-02  9.9879e-01  4.9885e-01 -1.8648e+05  0:02:39  265
 temperature limited to 1.000000e+00 in 11 cells on zone 14422 in domain 1
 
 absolute pressure limited to 5.000000e+10 in 114639 cells on zone 14422 

 turbulent viscosity limited to viscosity ratio of 1.000000e+05 in 109885 cells 
   236  2.0987e+12  4.2635e-03  4.9048e-02  5.1410e-02  2.0029e-02  9.9597e-01  4.9740e-01 -1.8795e+05  0:02:38  264
 temperature limited to 1.000000e+00 in 10 cells on zone 14422 in domain 1
 
 absolute pressure limited to 5.000000e+10 in 114658 cells on zone 14422 

 turbulent viscosity limited to viscosity ratio of 1.000000e+05 in 109963 cells 
   237  2.1015e+12  4.6973e-03  4.8601e-02  4.9822e-02  1.8709e-02  9.8811e-01  4.9464e-01 -2.0279e+05  0:02:38  263
 temperature limited to 1.000000e+00 in 11 cells on zone 14422 in domain 1
 
 absolute pressure limited to 5.000000e+10 in 114667 cells on zone 14422 

 turbulent viscosity limited to viscosity ratio of 1.000000e+05 in 109839 cells 
   238  2.1897e+12  5.0482e-03  4.7398e-02  4.8371e-02  1.9431e-02  9.9074e-01  4.9314e-01 -2.2674e+05  0:02:38  262
 temperature limited to 1.000000e+00 in 12 cells on zone 14422 in domain 1
 
 absolute pressure limited to 5.000000e+10 in 114652 cells on zone 14422 

 turbulent viscosity limited to viscosity ratio of 1.000000e+05 in 109957 cells 
   239  2.1638e+12  4.2806e-03  4.6499e-02  4.9312e-02  1.8345e-02  9.9648e-01  4.9632e-01 -2.6787e+05  0:02:38  261
 temperature limited to 1.000000e+00 in 13 cells on zone 14422 in domain 1
 
 absolute pressure limited to 5.000000e+10 in 114657 cells on zone 14422 

 turbulent viscosity limited to viscosity ratio of 1.000000e+05 in 109846 cells 
   240  2.1620e+12  4.5596e-03  4.5576e-02  4.7950e-02  1.7300e-02  9.8727e-01  4.9279e-01 -3.5734e+05  0:02:37  260
 temperature limited to 1.000000e+00 in 15 cells on zone 14422 in domain 1
 
 absolute pressure limited to 5.000000e+10 in 114400 cells on zone 14422 

 turbulent viscosity limited to viscosity ratio of 1.000000e+05 in 109939 cells 
   241  2.1889e+12  4.5616e-03  4.3875e-02  4.6429e-02  1.8596e-02  9.9642e-01  4.9560e-01 -4.8651e+05  0:02:36  259
 temperature limited to 1.000000e+00 in 15 cells on zone 14422 in domain 1
 
 absolute pressure limited to 5.000000e+10 in 113652 cells on zone 14422 

 turbulent viscosity limited to viscosity ratio of 1.000000e+05 in 109958 cells 
   242  2.0721e+12  4.5833e-03  4.3398e-02  4.7165e-02  1.8180e-02  9.9205e-01  4.9355e-01 -7.0923e+05  0:02:35  258
 temperature limited to 1.000000e+00 in 16 cells on zone 14422 in domain 1
 
 absolute pressure limited to 5.000000e+10 in 113213 cells on zone 14422 

 turbulent viscosity limited to viscosity ratio of 1.000000e+05 in 109987 cells 

  iter  continuity  x-velocity  y-velocity  z-velocity      energy           k       omega  report-def     time/iter
   243  1.9924e+12  4.9726e-03  4.4341e-02  4.6419e-02  1.8478e-02  9.8868e-01  4.9184e-01 -1.0077e+06  0:02:35  257
 temperature limited to 1.000000e+00 in 24 cells on zone 14422 in domain 1
 
 absolute pressure limited to 5.000000e+10 in 112744 cells on zone 14422 

 turbulent viscosity limited to viscosity ratio of 1.000000e+05 in 110013 cells 
   244  2.1037e+12  5.0936e-03  4.5994e-02  4.6783e-02  2.0297e-02  9.8747e-01  4.9079e-01 -1.3548e+06  0:02:34  256
 temperature limited to 1.000000e+00 in 32 cells on zone 14422 in domain 1
 
 absolute pressure limited to 5.000000e+10 in 112554 cells on zone 14422 

 turbulent viscosity limited to viscosity ratio of 1.000000e+05 in 109968 cells 
   245  2.0632e+12  4.9083e-03  4.6406e-02  4.8386e-02  1.9334e-02  9.8861e-01  4.8987e-01 -1.6842e+06  0:02:34  255
 temperature limited to 1.000000e+00 in 40 cells on zone 14422 in domain 1
 
 absolute pressure limited to 5.000000e+10 in 112553 cells on zone 14422 

 turbulent viscosity limited to viscosity ratio of 1.000000e+05 in 109993 cells 
   246  2.0769e+12  4.5735e-03  4.7454e-02  4.9214e-02  1.8436e-02  9.7077e-01  4.8132e-01 -2.1285e+06  0:02:34  254
 temperature limited to 1.000000e+00 in 51 cells on zone 14422 in domain 1
 
 absolute pressure limited to 5.000000e+10 in 112461 cells on zone 14422 

 turbulent viscosity limited to viscosity ratio of 1.000000e+05 in 109881 cells 
   247  2.1055e+12  5.0852e-03  4.6739e-02  4.7843e-02  1.7283e-02  9.7845e-01  4.8250e-01 -2.2696e+06  0:02:33  253
 temperature limited to 1.000000e+00 in 65 cells on zone 14422 in domain 1
 
 absolute pressure limited to 5.000000e+10 in 112553 cells on zone 14422 

 turbulent viscosity limited to viscosity ratio of 1.000000e+05 in 109930 cells 
   248  2.0584e+12  4.8986e-03  4.6279e-02  4.7918e-02  1.9563e-02  9.8213e-01  4.8279e-01 -2.4968e+06  0:02:33  252
 temperature limited to 1.000000e+00 in 77 cells on zone 14422 in domain 1
 
 absolute pressure limited to 5.000000e+10 in 112623 cells on zone 14422 

 turbulent viscosity limited to viscosity ratio of 1.000000e+05 in 109903 cells 
   249  2.0218e+12  4.6238e-03  4.6226e-02  4.9342e-02  2.0666e-02  9.8204e-01  4.8322e-01 -2.6565e+06  0:02:32  251
 temperature limited to 1.000000e+00 in 82 cells on zone 14422 in domain 1
 
 absolute pressure limited to 5.000000e+10 in 112745 cells on zone 14422 

 turbulent viscosity limited to viscosity ratio of 1.000000e+05 in 109951 cells 
   250  2.0868e+12  5.1093e-03  4.6817e-02  5.1359e-02  2.0383e-02  9.7889e-01  4.8210e-01 -2.7073e+06  0:02:31  250
 temperature limited to 1.000000e+00 in 94 cells on zone 14422 in domain 1
 
 absolute pressure limited to 5.000000e+10 in 112897 cells on zone 14422 

 turbulent viscosity limited to viscosity ratio of 1.000000e+05 in 109929 cells 
   251  2.1735e+12  4.7371e-03  4.7002e-02  5.1754e-02  1.9020e-02  9.8623e-01  4.8599e-01 -2.7198e+06  0:02:31  249
 temperature limited to 1.000000e+00 in 106 cells on zone 14422 in domain 1
 
 absolute pressure limited to 5.000000e+10 in 113049 cells on zone 14422 

 turbulent viscosity limited to viscosity ratio of 1.000000e+05 in 110035 cells 
   252  2.1806e+12  4.4963e-03  4.5987e-02  5.0515e-02  1.7618e-02  9.9861e-01  4.9834e-01 -2.6905e+06  0:02:30  248
 temperature limited to 1.000000e+00 in 121 cells on zone 14422 in domain 1
 
 absolute pressure limited to 5.000000e+10 in 113193 cells on zone 14422 

 turbulent viscosity limited to viscosity ratio of 1.000000e+05 in 110030 cells 
   253  2.1659e+12  4.4914e-03  4.5953e-02  4.9178e-02  1.7583e-02  9.9768e-01  4.9787e-01 -2.5839e+06  0:02:29  247
 temperature limited to 1.000000e+00 in 136 cells on zone 14422 in domain 1
 
 absolute pressure limited to 5.000000e+10 in 113389 cells on zone 14422 

 turbulent viscosity limited to viscosity ratio of 1.000000e+05 in 110071 cells 

  iter  continuity  x-velocity  y-velocity  z-velocity      energy           k       omega  report-def     time/iter
   254  2.2144e+12  4.7841e-03  4.5550e-02  4.8659e-02  1.6311e-02  9.9949e-01  4.9945e-01 -2.5108e+06  0:02:29  246
 temperature limited to 1.000000e+00 in 148 cells on zone 14422 in domain 1
 
 absolute pressure limited to 5.000000e+10 in 113548 cells on zone 14422 

 turbulent viscosity limited to viscosity ratio of 1.000000e+05 in 110017 cells 
   255  2.2127e+12  4.4668e-03  4.4292e-02  4.6711e-02  1.8335e-02  9.9758e-01  4.9880e-01 -2.4491e+06  0:02:28  245
 temperature limited to 1.000000e+00 in 170 cells on zone 14422 in domain 1
 
 absolute pressure limited to 5.000000e+10 in 113778 cells on zone 14422 

 turbulent viscosity limited to viscosity ratio of 1.000000e+05 in 110053 cells 
   256  2.1233e+12  4.8046e-03  4.4909e-02  4.6370e-02  1.7953e-02  9.9345e-01  4.9747e-01 -2.3638e+06  0:02:27  244
 temperature limited to 1.000000e+00 in 193 cells on zone 14422 in domain 1
 
 absolute pressure limited to 5.000000e+10 in 113957 cells on zone 14422 

 turbulent viscosity limited to viscosity ratio of 1.000000e+05 in 110074 cells 
   257  2.1168e+12  5.0716e-03  4.4720e-02  4.6445e-02  2.1197e-02  9.8987e-01  4.9575e-01 -2.1949e+06  0:02:27  243
 temperature limited to 1.000000e+00 in 225 cells on zone 14422 in domain 1
 
 absolute pressure limited to 5.000000e+10 in 114163 cells on zone 14422 

 turbulent viscosity limited to viscosity ratio of 1.000000e+05 in 110054 cells 
   258  2.1501e+12  5.0598e-03  4.5137e-02  4.8198e-02  2.1573e-02  9.9616e-01  4.9684e-01 -2.0382e+06  0:02:27  242
 temperature limited to 1.000000e+00 in 102 cells on zone 14422 in domain 1
 
 absolute pressure limited to 5.000000e+10 in 114341 cells on zone 14422 

 turbulent viscosity limited to viscosity ratio of 1.000000e+05 in 109901 cells 
   259  2.2651e+12  4.4958e-03  4.6069e-02  5.1079e-02  1.9438e-02  9.9354e-01  4.9528e-01 -1.8416e+06  0:02:26  241
 temperature limited to 1.000000e+00 in 248 cells on zone 14422 in domain 1
 
 absolute pressure limited to 5.000000e+10 in 114461 cells on zone 14422 

 turbulent viscosity limited to viscosity ratio of 1.000000e+05 in 109634 cells 
   260  2.2778e+12  4.5400e-03  4.5321e-02  5.0818e-02  1.9825e-02  9.9117e-01  4.9333e-01 -1.6447e+06  0:02:25  240
 temperature limited to 1.000000e+00 in 38 cells on zone 14422 in domain 1
 
 absolute pressure limited to 5.000000e+10 in 114582 cells on zone 14422 

 turbulent viscosity limited to viscosity ratio of 1.000000e+05 in 109522 cells 
   261  2.3297e+12  4.2996e-03  4.4574e-02  5.1250e-02  1.8490e-02  9.9385e-01  4.9429e-01 -1.5267e+06  0:02:25  239
 temperature limited to 1.000000e+00 in 14 cells on zone 14422 in domain 1
 
 absolute pressure limited to 5.000000e+10 in 114636 cells on zone 14422 

 turbulent viscosity limited to viscosity ratio of 1.000000e+05 in 109394 cells 
   262  2.3685e+12  4.5059e-03  4.3684e-02  4.9645e-02  1.6950e-02  9.7832e-01  4.8886e-01 -1.3828e+06  0:02:24  238
 temperature limited to 1.000000e+00 in 54 cells on zone 14422 in domain 1
 
 absolute pressure limited to 5.000000e+10 in 114632 cells on zone 14422 

 turbulent viscosity limited to viscosity ratio of 1.000000e+05 in 109303 cells 
   263  2.2373e+12  4.0912e-03  4.3514e-02  4.9220e-02  1.9327e-02  9.9227e-01  4.9225e-01 -1.2400e+06  0:02:24  237
 temperature limited to 1.000000e+00 in 70 cells on zone 14422 in domain 1
 
 absolute pressure limited to 5.000000e+10 in 114661 cells on zone 14422 

 turbulent viscosity limited to viscosity ratio of 1.000000e+05 in 109276 cells 
   264  2.2601e+12  4.6698e-03  4.2982e-02  4.8210e-02  2.1195e-02  9.8848e-01  4.8998e-01 -1.2541e+06  0:02:23  236
 temperature limited to 1.000000e+00 in 22 cells on zone 14422 in domain 1
 
 absolute pressure limited to 5.000000e+10 in 114653 cells on zone 14422 

 turbulent viscosity limited to viscosity ratio of 1.000000e+05 in 109169 cells 

  iter  continuity  x-velocity  y-velocity  z-velocity      energy           k       omega  report-def     time/iter
   265  2.3007e+12  4.5667e-03  4.4884e-02  4.7752e-02  1.9839e-02  9.8387e-01  4.8702e-01 -1.1827e+06  0:02:22  235
 temperature limited to 1.000000e+00 in 67 cells on zone 14422 in domain 1
 
 absolute pressure limited to 5.000000e+10 in 114656 cells on zone 14422 

 turbulent viscosity limited to viscosity ratio of 1.000000e+05 in 109000 cells 
   266  2.2647e+12  3.8913e-03  4.5890e-02  4.8632e-02  1.9325e-02  9.9254e-01  4.9125e-01 -1.0897e+06  0:02:22  234
 temperature limited to 1.000000e+00 in 85 cells on zone 14422 in domain 1
 
 absolute pressure limited to 5.000000e+10 in 114653 cells on zone 14422 

 turbulent viscosity limited to viscosity ratio of 1.000000e+05 in 107868 cells 
   267  2.2494e+12  4.3783e-03  4.5966e-02  4.8580e-02  1.7642e-02  9.8417e-01  4.8626e-01 -1.0363e+06  0:02:21  233
 temperature limited to 1.000000e+00 in 21 cells on zone 14422 in domain 1
 
 absolute pressure limited to 5.000000e+10 in 114656 cells on zone 14422 

 turbulent viscosity limited to viscosity ratio of 1.000000e+05 in 106638 cells 
   268  2.2522e+12  4.5962e-03  4.4549e-02  4.7464e-02  1.9142e-02  9.7172e-01  4.7736e-01 -8.4621e+05  0:02:20  232
 temperature limited to 1.000000e+00 in 73 cells on zone 14422 in domain 1
 
 absolute pressure limited to 5.000000e+10 in 114655 cells on zone 14422 

 turbulent viscosity limited to viscosity ratio of 1.000000e+05 in 105413 cells 
   269  2.2139e+12  4.3351e-03  4.5239e-02  4.7378e-02  1.9810e-02  9.8255e-01  4.7977e-01 -6.8319e+05  0:02:20  231
 temperature limited to 1.000000e+00 in 85 cells on zone 14422 in domain 1
 
 absolute pressure limited to 5.000000e+10 in 114659 cells on zone 14422 

 turbulent viscosity limited to viscosity ratio of 1.000000e+05 in 104520 cells 
   270  2.2392e+12  4.7543e-03  4.6134e-02  4.7286e-02  1.9738e-02  9.7751e-01  4.7687e-01 -5.5036e+05  0:02:19  230
 temperature limited to 1.000000e+00 in 111 cells on zone 14422 in domain 1
 
 absolute pressure limited to 5.000000e+10 in 114643 cells on zone 14422 

 turbulent viscosity limited to viscosity ratio of 1.000000e+05 in 103991 cells 
   271  2.2348e+12  4.2344e-03  4.6117e-02  4.6815e-02  1.9515e-02  9.9994e-01  4.9989e-01 -4.5065e+05  0:02:19  229
 temperature limited to 1.000000e+00 in 115 cells on zone 14422 in domain 1
 
 absolute pressure limited to 5.000000e+10 in 114640 cells on zone 14422 

 turbulent viscosity limited to viscosity ratio of 1.000000e+05 in 104331 cells 
   272  2.1807e+12  4.5242e-03  4.5871e-02  4.4574e-02  2.1262e-02  9.9975e-01  4.9980e-01 -3.8242e+05  0:02:18  228
 temperature limited to 1.000000e+00 in 132 cells on zone 14422 in domain 1
  temperature limited to 5.000000e+03 in 3 cells on zone 14422 in domain 1
 
 absolute pressure limited to 5.000000e+10 in 114639 cells on zone 14422 

 turbulent viscosity limited to viscosity ratio of 1.000000e+05 in 104197 cells 
   273  2.1695e+12  4.6754e-03  4.6122e-02  4.5474e-02  2.1377e-02  9.9849e-01  4.9950e-01 -3.3591e+05  0:02:17  227
 temperature limited to 1.000000e+00 in 155 cells on zone 14422 in domain 1
 
 absolute pressure limited to 5.000000e+10 in 114680 cells on zone 14422 

 turbulent viscosity limited to viscosity ratio of 1.000000e+05 in 104905 cells 
   274  2.2663e+12  4.5999e-03  4.6142e-02  4.5760e-02  2.0931e-02  9.9934e-01  4.9956e-01 -3.0200e+05  0:02:16  226
 temperature limited to 1.000000e+00 in 151 cells on zone 14422 in domain 1
  temperature limited to 5.000000e+03 in 2 cells on zone 14422 in domain 1
 
 absolute pressure limited to 5.000000e+10 in 114640 cells on zone 14422 

 turbulent viscosity limited to viscosity ratio of 1.000000e+05 in 106828 cells 
   275  2.3028e+12  4.1940e-03  4.5609e-02  4.7267e-02  1.9414e-02  9.9696e-01  4.9893e-01 -2.8089e+05  0:02:15  225
 temperature limited to 1.000000e+00 in 175 cells on zone 14422 in domain 1
 
 absolute pressure limited to 5.000000e+10 in 114682 cells on zone 14422 

 turbulent viscosity limited to viscosity ratio of 1.000000e+05 in 108731 cells 

  iter  continuity  x-velocity  y-velocity  z-velocity      energy           k       omega  report-def     time/iter
   276  2.2785e+12  4.4391e-03  4.5175e-02  4.6569e-02  1.7928e-02  9.8861e-01  4.9736e-01 -2.6219e+05  0:02:14  224
 temperature limited to 1.000000e+00 in 146 cells on zone 14422 in domain 1
 
 absolute pressure limited to 5.000000e+10 in 114654 cells on zone 14422 

 turbulent viscosity limited to viscosity ratio of 1.000000e+05 in 109334 cells 
   277  2.3031e+12  4.5406e-03  4.3171e-02  4.5144e-02  1.8403e-02  9.9779e-01  4.9806e-01 -2.4924e+05  0:02:14  223
 temperature limited to 1.000000e+00 in 184 cells on zone 14422 in domain 1
  temperature limited to 5.000000e+03 in 15 cells on zone 14422 in domain 1
 
 absolute pressure limited to 5.000000e+10 in 114670 cells on zone 14422 

 turbulent viscosity limited to viscosity ratio of 1.000000e+05 in 109592 cells 
   278  2.2827e+12  4.1903e-03  4.2374e-02  4.5975e-02  1.7829e-02  9.9136e-01  4.9620e-01 -2.3933e+05  0:02:13  222
 temperature limited to 1.000000e+00 in 222 cells on zone 14422 in domain 1
  temperature limited to 1.000000e+00 on 2 faces

 absolute pressure limited to 5.000000e+10 in 114655 cells on zone 14422 

[...]

 turbulent viscosity limited to viscosity ratio of 1.000000e+05 in 109715 cells 
   443  1.7559e+13  1.8854e-03  4.6901e-02  3.5104e-02  3.1190e-02  9.9225e-01  4.9077e-01 -7.3732e+04  0:00:34   57
 temperature limited to 1.000000e+00 in 2232 cells on zone 14422 in domain 1
 
 absolute pressure limited to 5.000000e+10 in 114589 cells on zone 14422 

 turbulent viscosity limited to viscosity ratio of 1.000000e+05 in 109748 cells 
   444  1.7372e+13  1.8879e-03  5.0006e-02  3.8659e-02  2.8989e-02  9.9973e-01  4.9945e-01 -7.8520e+04  0:00:37   56
 temperature limited to 1.000000e+00 in 3175 cells on zone 14422 in domain 1
 
 absolute pressure limited to 5.000000e+10 in 114597 cells on zone 14422 

 turbulent viscosity limited to viscosity ratio of 1.000000e+05 in 109722 cells 
   445  1.8653e+13  1.7488e-03  4.8237e-02  3.6002e-02  2.7343e-02  9.9978e-01  4.9971e-01 -7.9893e+04  0:00:36   55
 temperature limited to 1.000000e+00 in 3106 cells on zone 14422 in domain 1
 
 absolute pressure limited to 5.000000e+10 in 114584 cells on zone 14422 

 turbulent viscosity limited to viscosity ratio of 1.000000e+05 in 109737 cells 
   446  1.8395e+13  1.6094e-03  4.4425e-02  3.4082e-02  2.6881e-02  9.9856e-01  4.9927e-01 -8.7929e+04  0:00:34   54
 temperature limited to 1.000000e+00 in 2856 cells on zone 14422 in domain 1
 
 absolute pressure limited to 5.000000e+10 in 114596 cells on zone 14422 

 turbulent viscosity limited to viscosity ratio of 1.000000e+05 in 109751 cells 
   447  1.6842e+13  1.7151e-03  4.3111e-02  3.4501e-02  2.2425e-02  9.9255e-01  4.9808e-01 -8.9405e+04  0:00:33   53
 temperature limited to 1.000000e+00 in 2316 cells on zone 14422 in domain 1
 
 absolute pressure limited to 5.000000e+10 in 114590 cells on zone 14422 

 turbulent viscosity limited to viscosity ratio of 1.000000e+05 in 109753 cells 
   448  1.6529e+13  1.7101e-03  3.7295e-02  3.4883e-02  2.3896e-02  9.8313e-01  4.9559e-01 -8.9231e+04  0:00:33   52
 temperature limited to 1.000000e+00 in 44 cells on zone 14422 in domain 1
 
 absolute pressure limited to 5.000000e+10 in 114572 cells on zone 14422 

 turbulent viscosity limited to viscosity ratio of 1.000000e+05 in 109718 cells 
   449  1.6190e+13  1.6162e-03  3.3903e-02  3.6475e-02  2.7053e-02  9.9567e-01  4.9636e-01 -8.7648e+04  0:00:32   51
 temperature limited to 1.000000e+00 in 5 cells on zone 14422 in domain 1
 
 absolute pressure limited to 5.000000e+10 in 114610 cells on zone 14422 

 turbulent viscosity limited to viscosity ratio of 1.000000e+05 in 109768 cells 
   450  1.6023e+13  1.8078e-03  3.8727e-02  3.8101e-02  2.5870e-02  9.8093e-01  4.9173e-01 -8.2881e+04  0:00:31   50
 temperature limited to 1.000000e+00 in 35 cells on zone 14422 in domain 1
 
 absolute pressure limited to 5.000000e+10 in 114625 cells on zone 14422 

 turbulent viscosity limited to viscosity ratio of 1.000000e+05 in 109744 cells 
   451  1.7831e+13  1.7040e-03  3.7225e-02  3.6806e-02  2.5166e-02  9.9277e-01  4.8696e-01 -8.0715e+04  0:00:30   49

 absolute pressure limited to 5.000000e+10 in 114607 cells on zone 14422 

 turbulent viscosity limited to viscosity ratio of 1.000000e+05 in 109616 cells 

  iter  continuity  x-velocity  y-velocity  z-velocity      energy           k       omega  report-def     time/iter
   452  1.7784e+13  1.5182e-03  3.7157e-02  3.5630e-02  2.3632e-02  9.9271e-01  4.8366e-01 -8.2562e+04  0:00:29   48

 absolute pressure limited to 5.000000e+10 in 114570 cells on zone 14422 

 turbulent viscosity limited to viscosity ratio of 1.000000e+05 in 109626 cells 
   453  1.6507e+13  1.6077e-03  3.7176e-02  3.4747e-02  2.3580e-02  9.7355e-01  4.8526e-01 -7.5025e+04  0:00:29   47

 absolute pressure limited to 5.000000e+10 in 114618 cells on zone 14422 

 turbulent viscosity limited to viscosity ratio of 1.000000e+05 in 109565 cells 
   454  1.6326e+13  1.9453e-03  3.8543e-02  3.5548e-02  2.4538e-02  9.8078e-01  4.8264e-01 -7.2013e+04  0:00:28   46

 absolute pressure limited to 5.000000e+10 in 114571 cells on zone 14422 

 turbulent viscosity limited to viscosity ratio of 1.000000e+05 in 109597 cells 
   455  1.6247e+13  1.9512e-03  3.9389e-02  3.5871e-02  2.3691e-02  9.9582e-01  4.9203e-01 -6.9488e+04  0:00:27   45

 absolute pressure limited to 5.000000e+10 in 114594 cells on zone 14422 

 turbulent viscosity limited to viscosity ratio of 1.000000e+05 in 109599 cells 
   456  1.6445e+13  1.7282e-03  3.7949e-02  3.3061e-02  2.1434e-02  9.9289e-01  4.8754e-01 -6.8970e+04  0:00:27   44

 absolute pressure limited to 5.000000e+10 in 114587 cells on zone 14422 

 turbulent viscosity limited to viscosity ratio of 1.000000e+05 in 109512 cells 
   457  1.4746e+13  1.7645e-03  3.6410e-02  3.1824e-02  2.3084e-02  9.7320e-01  4.8429e-01 -6.4125e+04  0:00:26   43

 absolute pressure limited to 5.000000e+10 in 114581 cells on zone 14422 

 turbulent viscosity limited to viscosity ratio of 1.000000e+05 in 109572 cells 
   458  1.3709e+13  2.0738e-03  4.2204e-02  3.5711e-02  2.4741e-02  9.6096e-01  4.8163e-01 -6.8926e+04  0:00:25   42

 absolute pressure limited to 5.000000e+10 in 114600 cells on zone 14422 

 turbulent viscosity limited to viscosity ratio of 1.000000e+05 in 109624 cells 
   459  1.5206e+13  2.2654e-03  4.2949e-02  4.0200e-02  2.8186e-02  9.9436e-01  4.9263e-01 -7.2466e+04  0:00:25   41

 absolute pressure limited to 5.000000e+10 in 114599 cells on zone 14422 

 turbulent viscosity limited to viscosity ratio of 1.000000e+05 in 109531 cells 
   460  1.5438e+13  1.9313e-03  4.1590e-02  4.2593e-02  2.4705e-02  9.9967e-01  4.9945e-01 -7.7080e+04  0:00:24   40

 absolute pressure limited to 5.000000e+10 in 114589 cells on zone 14422 

 turbulent viscosity limited to viscosity ratio of 1.000000e+05 in 109486 cells 
   461  1.4869e+13  1.7683e-03  3.8371e-02  3.9761e-02  2.7015e-02  9.9786e-01  4.9856e-01 -7.3573e+04  0:00:24   39

 absolute pressure limited to 5.000000e+10 in 114571 cells on zone 14422 

 turbulent viscosity limited to viscosity ratio of 1.000000e+05 in 109410 cells 
   462  1.5239e+13  1.9255e-03  3.7898e-02  3.7520e-02  2.7177e-02  9.9168e-01  4.9693e-01 -7.2225e+04  0:00:23   38

 absolute pressure limited to 5.000000e+10 in 114587 cells on zone 14422 

 turbulent viscosity limited to viscosity ratio of 1.000000e+05 in 109038 cells 

  iter  continuity  x-velocity  y-velocity  z-velocity      energy           k       omega  report-def     time/iter
   463  1.5471e+13  2.0127e-03  3.8089e-02  3.6989e-02  2.6555e-02  9.7214e-01  4.9294e-01 -7.2416e+04  0:00:22   37

 absolute pressure limited to 5.000000e+10 in 114599 cells on zone 14422 

 turbulent viscosity limited to viscosity ratio of 1.000000e+05 in 108687 cells 
   464  1.5541e+13  1.8329e-03  3.6939e-02  3.6299e-02  2.9606e-02  9.9885e-01  4.9903e-01 -7.6441e+04  0:00:22   36

 absolute pressure limited to 5.000000e+10 in 114604 cells on zone 14422 

 turbulent viscosity limited to viscosity ratio of 1.000000e+05 in 108520 cells 
   465  1.4967e+13  1.6019e-03  3.6827e-02  3.9055e-02  2.7540e-02  9.9555e-01  4.9769e-01 -7.1818e+04  0:00:21   35
 temperature limited to 1.000000e+00 in 4 cells on zone 14422 in domain 1
 
 absolute pressure limited to 5.000000e+10 in 114622 cells on zone 14422 

 turbulent viscosity limited to viscosity ratio of 1.000000e+05 in 108664 cells 
   466  1.5215e+13  1.7958e-03  3.7263e-02  3.9467e-02  2.7320e-02  9.9562e-01  4.9577e-01 -7.1618e+04  0:00:20   34
 temperature limited to 1.000000e+00 in 7 cells on zone 14422 in domain 1
 
 absolute pressure limited to 5.000000e+10 in 114615 cells on zone 14422 

 turbulent viscosity limited to viscosity ratio of 1.000000e+05 in 108728 cells 
   467  1.5860e+13  1.7956e-03  3.8724e-02  3.8820e-02  2.3709e-02  9.9235e-01  4.9382e-01 -7.4529e+04  0:00:20   33
 temperature limited to 1.000000e+00 in 25 cells on zone 14422 in domain 1
 
 absolute pressure limited to 5.000000e+10 in 114611 cells on zone 14422 

 turbulent viscosity limited to viscosity ratio of 1.000000e+05 in 108644 cells 
   468  1.6581e+13  1.8423e-03  3.8281e-02  3.7598e-02  2.1901e-02  9.8332e-01  4.8750e-01 -8.2754e+04  0:00:19   32
 temperature limited to 1.000000e+00 in 79 cells on zone 14422 in domain 1
 
 absolute pressure limited to 5.000000e+10 in 114620 cells on zone 14422 

 turbulent viscosity limited to viscosity ratio of 1.000000e+05 in 108821 cells 
   469  1.6710e+13  1.7921e-03  3.6955e-02  3.5668e-02  2.0123e-02  9.8882e-01  4.8224e-01 -8.0732e+04  0:00:19   31
 temperature limited to 1.000000e+00 in 121 cells on zone 14422 in domain 1
 
 absolute pressure limited to 5.000000e+10 in 114626 cells on zone 14422 

 turbulent viscosity limited to viscosity ratio of 1.000000e+05 in 108760 cells 
   470  1.7017e+13  1.7760e-03  3.6361e-02  3.2566e-02  1.9534e-02  9.7280e-01  4.6745e-01 -8.6410e+04  0:00:18   30
 temperature limited to 1.000000e+00 in 1399 cells on zone 14422 in domain 1
 
 absolute pressure limited to 5.000000e+10 in 114596 cells on zone 14422 

 turbulent viscosity limited to viscosity ratio of 1.000000e+05 in 108711 cells 
   471  1.5509e+13  1.8063e-03  3.4571e-02  3.2128e-02  1.9808e-02  9.7426e-01  4.6549e-01 -8.5022e+04  0:00:17   29
 temperature limited to 1.000000e+00 in 1603 cells on zone 14422 in domain 1
 
 absolute pressure limited to 5.000000e+10 in 114605 cells on zone 14422 

 turbulent viscosity limited to viscosity ratio of 1.000000e+05 in 108881 cells 
   472  1.4960e+13  2.0006e-03  3.7866e-02  3.4254e-02  1.9547e-02  9.9934e-01  4.9928e-01 -9.2702e+04  0:00:17   28
 temperature limited to 1.000000e+00 in 1968 cells on zone 14422 in domain 1
 
 absolute pressure limited to 5.000000e+10 in 114631 cells on zone 14422 

 turbulent viscosity limited to viscosity ratio of 1.000000e+05 in 108949 cells 
   473  1.5980e+13  2.3439e-03  3.8914e-02  3.5611e-02  2.1620e-02  9.9654e-01  4.9831e-01 -9.7765e+04  0:00:16   27
 temperature limited to 1.000000e+00 in 2272 cells on zone 14422 in domain 1
 
 absolute pressure limited to 5.000000e+10 in 114628 cells on zone 14422 

 turbulent viscosity limited to viscosity ratio of 1.000000e+05 in 109120 cells 

  iter  continuity  x-velocity  y-velocity  z-velocity      energy           k       omega  report-def     time/iter
   474  1.7139e+13  2.0215e-03  4.0474e-02  3.8706e-02  2.2723e-02  9.9448e-01  4.9647e-01 -1.0232e+05  0:00:16   26
 temperature limited to 1.000000e+00 in 2556 cells on zone 14422 in domain 1
 
 absolute pressure limited to 5.000000e+10 in 114615 cells on zone 14422 

 turbulent viscosity limited to viscosity ratio of 1.000000e+05 in 109206 cells 
   475  1.7767e+13  1.8235e-03  4.0151e-02  4.0703e-02  2.6713e-02  9.9707e-01  4.9792e-01 -1.0416e+05  0:00:15   25
 temperature limited to 1.000000e+00 in 2762 cells on zone 14422 in domain 1
 
 absolute pressure limited to 5.000000e+10 in 114633 cells on zone 14422 

 turbulent viscosity limited to viscosity ratio of 1.000000e+05 in 109187 cells 
   476  1.7908e+13  1.8666e-03  4.6403e-02  4.2414e-02  2.5072e-02  9.9588e-01  4.9643e-01 -1.1159e+05  0:00:14   24
 temperature limited to 1.000000e+00 in 3249 cells on zone 14422 in domain 1
 
 absolute pressure limited to 5.000000e+10 in 114620 cells on zone 14422 

 turbulent viscosity limited to viscosity ratio of 1.000000e+05 in 109134 cells 
   477  1.9332e+13  1.9595e-03  4.6961e-02  4.2047e-02  2.2823e-02  9.8647e-01  4.9125e-01 -1.1609e+05  0:00:14   23
 temperature limited to 1.000000e+00 in 4072 cells on zone 14422 in domain 1
 
 absolute pressure limited to 5.000000e+10 in 114610 cells on zone 14422 

 turbulent viscosity limited to viscosity ratio of 1.000000e+05 in 109097 cells 
   478  1.9535e+13  1.7992e-03  4.5145e-02  4.0227e-02  1.9565e-02  9.9961e-01  4.9965e-01 -1.2355e+05  0:00:13   22
 temperature limited to 1.000000e+00 in 4382 cells on zone 14422 in domain 1
 
 absolute pressure limited to 5.000000e+10 in 114617 cells on zone 14422 

 turbulent viscosity limited to viscosity ratio of 1.000000e+05 in 109158 cells 
   479  1.8720e+13  1.7437e-03  4.2044e-02  3.9223e-02  1.9471e-02  9.9806e-01  4.9922e-01 -1.2647e+05  0:00:13   21
 temperature limited to 1.000000e+00 in 4669 cells on zone 14422 in domain 1
 
 absolute pressure limited to 5.000000e+10 in 114595 cells on zone 14422 

 turbulent viscosity limited to viscosity ratio of 1.000000e+05 in 109257 cells 
   480  1.8359e+13  1.9300e-03  4.2481e-02  3.8352e-02  2.2546e-02  9.9720e-01  4.9886e-01 -1.3429e+05  0:00:12   20
 temperature limited to 1.000000e+00 in 4931 cells on zone 14422 in domain 1
 
 absolute pressure limited to 5.000000e+10 in 114602 cells on zone 14422 

 turbulent viscosity limited to viscosity ratio of 1.000000e+05 in 109270 cells 
   481  1.9767e+13  2.0143e-03  4.4902e-02  3.8309e-02  2.4775e-02  9.9890e-01  4.9925e-01 -1.4085e+05  0:00:11   19
 temperature limited to 1.000000e+00 in 4419 cells on zone 14422 in domain 1
 
 absolute pressure limited to 5.000000e+10 in 114591 cells on zone 14422 

 turbulent viscosity limited to viscosity ratio of 1.000000e+05 in 109185 cells 
   482  2.0324e+13  1.7386e-03  4.4254e-02  4.0802e-02  2.6312e-02  9.9569e-01  4.9855e-01 -1.5119e+05  0:00:11   18
 temperature limited to 1.000000e+00 in 3393 cells on zone 14422 in domain 1
 
 absolute pressure limited to 5.000000e+10 in 114613 cells on zone 14422 

 turbulent viscosity limited to viscosity ratio of 1.000000e+05 in 109240 cells 
   483  2.0604e+13  1.5944e-03  4.6243e-02  4.0709e-02  2.6418e-02  9.9929e-01  4.9935e-01 -1.6198e+05  0:00:10   17
 temperature limited to 1.000000e+00 in 1073 cells on zone 14422 in domain 1
 
 absolute pressure limited to 5.000000e+10 in 114606 cells on zone 14422 

 turbulent viscosity limited to viscosity ratio of 1.000000e+05 in 109213 cells 
   484  2.2258e+13  1.6573e-03  4.5781e-02  4.1685e-02  2.3495e-02  9.9931e-01  4.9928e-01 -1.8083e+05  0:00:10   16
 temperature limited to 1.000000e+00 in 1602 cells on zone 14422 in domain 1
 
 absolute pressure limited to 5.000000e+10 in 114504 cells on zone 14422 

 turbulent viscosity limited to viscosity ratio of 1.000000e+05 in 109046 cells 

  iter  continuity  x-velocity  y-velocity  z-velocity      energy           k       omega  report-def     time/iter
   485  2.2731e+13  1.5578e-03  4.4051e-02  3.9838e-02  2.2713e-02  9.9790e-01  4.9855e-01 -2.1655e+05  0:00:09   15
 temperature limited to 1.000000e+00 in 185 cells on zone 14422 in domain 1
 
 absolute pressure limited to 5.000000e+10 in 114317 cells on zone 14422 

 turbulent viscosity limited to viscosity ratio of 1.000000e+05 in 109055 cells 
   486  2.3297e+13  1.5237e-03  4.2207e-02  3.9041e-02  2.2104e-02  9.9108e-01  4.9661e-01 -3.2553e+05  0:00:08   14
 temperature limited to 1.000000e+00 in 142 cells on zone 14422 in domain 1
 
 absolute pressure limited to 5.000000e+10 in 114217 cells on zone 14422 

 turbulent viscosity limited to viscosity ratio of 1.000000e+05 in 108994 cells 
   487  2.4953e+13  1.6570e-03  4.0420e-02  3.8693e-02  3.2678e-02  9.6611e-01  4.9167e-01 -5.8294e+05  0:00:08   13
 temperature limited to 1.000000e+00 in 116 cells on zone 14422 in domain 1
 
 absolute pressure limited to 5.000000e+10 in 114167 cells on zone 14422 

 turbulent viscosity limited to viscosity ratio of 1.000000e+05 in 108806 cells 
   488  2.4936e+13  1.4064e-03  4.5203e-02  3.4843e-02  3.3886e-02  9.7995e-01  4.8608e-01 -7.2957e+05  0:00:07   12
 temperature limited to 1.000000e+00 in 46 cells on zone 14422 in domain 1
 
 absolute pressure limited to 5.000000e+10 in 114170 cells on zone 14422 

 turbulent viscosity limited to viscosity ratio of 1.000000e+05 in 108562 cells 
   489  2.6212e+13  1.4451e-03  4.4727e-02  3.4592e-02  3.1508e-02  9.8914e-01  4.8818e-01 -7.0977e+05  0:00:07   11
 temperature limited to 1.000000e+00 in 42 cells on zone 14422 in domain 1
 
 absolute pressure limited to 5.000000e+10 in 114170 cells on zone 14422 

 turbulent viscosity limited to viscosity ratio of 1.000000e+05 in 108488 cells 
   490  2.7103e+13  1.3826e-03  4.4885e-02  3.4243e-02  2.9898e-02  9.9672e-01  4.9682e-01 -7.9464e+05  0:00:06   10
 temperature limited to 1.000000e+00 in 41 cells on zone 14422 in domain 1
 
 absolute pressure limited to 5.000000e+10 in 114205 cells on zone 14422 

 turbulent viscosity limited to viscosity ratio of 1.000000e+05 in 108646 cells 
   491  2.6208e+13  1.3899e-03  4.4533e-02  3.4562e-02  2.7858e-02  9.9448e-01  4.9556e-01 -7.5669e+05  0:00:05    9
 temperature limited to 1.000000e+00 in 40 cells on zone 14422 in domain 1
 
 absolute pressure limited to 5.000000e+10 in 114235 cells on zone 14422 

 turbulent viscosity limited to viscosity ratio of 1.000000e+05 in 108796 cells 
   492  2.5068e+13  1.4015e-03  4.6502e-02  3.5930e-02  2.9460e-02  9.8020e-01  4.8997e-01 -7.9509e+05  0:00:05    8
 temperature limited to 1.000000e+00 in 29 cells on zone 14422 in domain 1
 
 absolute pressure limited to 5.000000e+10 in 114294 cells on zone 14422 

 turbulent viscosity limited to viscosity ratio of 1.000000e+05 in 108920 cells 
   493  2.7716e+13  1.5009e-03  4.1290e-02  4.2860e-02  2.5912e-02  9.9206e-01  4.9320e-01 -7.6701e+05  0:00:04    7
 temperature limited to 1.000000e+00 in 21 cells on zone 14422 in domain 1
 
 absolute pressure limited to 5.000000e+10 in 114285 cells on zone 14422 

 turbulent viscosity limited to viscosity ratio of 1.000000e+05 in 108970 cells 
   494  3.0112e+13  1.4757e-03  4.1482e-02  4.2024e-02  2.3788e-02  9.7645e-01  4.8368e-01 -7.2794e+05  0:00:04    6
 temperature limited to 1.000000e+00 in 2 cells on zone 14422 in domain 1
  temperature limited to 1.000000e+00 on 1 faces

 absolute pressure limited to 5.000000e+10 in 114345 cells on zone 14422 

 turbulent viscosity limited to viscosity ratio of 1.000000e+05 in 109095 cells 
   495  2.9149e+13  1.3457e-03  4.1417e-02  4.1855e-02  2.3019e-02  9.7472e-01  4.6877e-01 -6.6958e+05  0:00:03    5
 temperature limited to 1.000000e+00 in 13 cells on zone 14422 in domain 1
 
 absolute pressure limited to 5.000000e+10 in 114393 cells on zone 14422 

 turbulent viscosity limited to viscosity ratio of 1.000000e+05 in 109355 cells 

  iter  continuity  x-velocity  y-velocity  z-velocity      energy           k       omega  report-def     time/iter
   496  3.0568e+13  1.3606e-03  3.7415e-02  4.0615e-02  2.3580e-02  9.9608e-01  4.8877e-01 -6.0948e+05  0:00:02    4
 temperature limited to 1.000000e+00 in 27 cells on zone 14422 in domain 1
 
 absolute pressure limited to 5.000000e+10 in 114420 cells on zone 14422 

 turbulent viscosity limited to viscosity ratio of 1.000000e+05 in 109357 cells 
   497  3.1364e+13  1.3597e-03  3.8361e-02  4.0433e-02  2.0490e-02  9.9472e-01  4.9383e-01 -5.4706e+05  0:00:02    3
 temperature limited to 1.000000e+00 in 32 cells on zone 14422 in domain 1
 
 absolute pressure limited to 5.000000e+10 in 114439 cells on zone 14422 

 turbulent viscosity limited to viscosity ratio of 1.000000e+05 in 109388 cells 
   498  3.1628e+13  1.4206e-03  3.9211e-02  4.3625e-02  2.1173e-02  9.8125e-01  4.8907e-01 -4.9401e+05  0:00:01    2
 temperature limited to 1.000000e+00 in 41 cells on zone 14422 in domain 1
 
 absolute pressure limited to 5.000000e+10 in 114452 cells on zone 14422 

 turbulent viscosity limited to viscosity ratio of 1.000000e+05 in 109481 cells 
   499  3.2712e+13  1.5036e-03  3.9983e-02  4.4240e-02  2.0941e-02  9.9450e-01  4.9153e-01 -4.5009e+05  0:00:01    1
 temperature limited to 1.000000e+00 in 10 cells on zone 14422 in domain 1
 
 absolute pressure limited to 5.000000e+10 in 114448 cells on zone 14422 

 turbulent viscosity limited to viscosity ratio of 1.000000e+05 in 109449 cells 
   500  3.2903e+13  1.5710e-03  4.0426e-02  4.2931e-02  1.9018e-02  9.7890e-01  4.8290e-01 -4.2466e+05  0:00:00    0

> Halting due to end of file on input.
Auto-Transcript Stop Time:  12:18:32, 06 Nov 2024 
Total Transcript Time: 5 Minute 26 Second.

Automatic transcript closed.
