/opt/crc/a/ansys/2024R1/v241/fluent/fluent24.1.0/bin/fluent -r24.1.0 3ddp -t4 -g
/opt/crc/a/ansys/2024R1/v241/fluent/fluent24.1.0/cortex/lnamd64/cortex.24.1.0 -f fluent -g (fluent "3ddp -pshmem  -host -r24.1.0 -t4 -mpi=intel -path/opt/crc/a/ansys/2024R1/v241/fluent -ssh")

Opening input/output transcript to file "/tmp/926191.1.long/worker-241760-2840499/task.19/fluent-20241106-120334-2849778.trn".
Auto-Transcript Start Time:  12:03:34, 06 Nov 2024 
/opt/crc/a/ansys/2024R1/v241/fluent/fluent24.1.0/bin/fluent -r24.1.0 3ddp -pshmem -host -t4 -mpi=intel -path/opt/crc/a/ansys/2024R1/v241/fluent -ssh -cx d32cepyc246.crc.nd.edu:40759:35997
Starting /opt/crc/a/ansys/2024R1/v241/fluent/fluent24.1.0/lnamd64/3ddp_host/fluent.24.1.0 host -cx d32cepyc246.crc.nd.edu:40759:35997 "(list (rpsetvar (QUOTE parallel/function) "fluent 3ddp -flux -node -r24.1.0 -t4 -pshmem -mpi=intel -ssh") (rpsetvar (QUOTE parallel/rhost) "") (rpsetvar (QUOTE parallel/ruser) "") (rpsetvar (QUOTE parallel/nprocs_string) "4") (rpsetvar (QUOTE parallel/auto-spawn?) #t) (rpsetvar (QUOTE parallel/trace-level) 0) (rpsetvar (QUOTE parallel/remote-shell) 1) (rpsetvar (QUOTE parallel/path) "/opt/crc/a/ansys/2024R1/v241/fluent") (rpsetvar (QUOTE parallel/hostsfile) "") (rpsetvar (QUOTE gpuapp/devices) ""))"

              Welcome to ANSYS Fluent 2024 R1

              Copyright 1987-2024 ANSYS, Inc. All Rights Reserved.
              Unauthorized use, distribution or duplication is prohibited.
              This product is subject to U.S. laws governing export and re-export.
              For full Legal Notice, see documentation.

Build Time: Nov 22 2023 10:07:25 EST  Build Id: 10184  
 
Connected License Server List:	7504@linux5-lic.crc.nd.edu

     --------------------------------------------------------------
     This is an academic version of ANSYS FLUENT. Usage of this product
     license is limited to the terms and conditions specified in your ANSYS
     license form, additional terms section.
     --------------------------------------------------------------
Host spawning Node 0 on machine "d32cepyc246.crc.nd.edu" (unix).
/opt/crc/a/ansys/2024R1/v241/fluent/fluent24.1.0/bin/fluent -r24.1.0 3ddp -flux -node -t4 -pshmem -mpi=intel -ssh -mport 10.32.93.3:10.32.93.3:37399:0
Starting /opt/crc/a/ansys/2024R1/v241/fluent/fluent24.1.0/multiport/mpi/lnamd64/intel2021/bin/mpirun --rsh=ssh -f /tmp/fluent-appfile.etracey.2850486 -genv I_MPI_FABRICS shm -genv FLUENT_ARCH lnamd64 -genv I_MPI_DEBUG 0 -genv I_MPI_ADJUST_GATHERV 3 -genv I_MPI_ADJUST_ALLREDUCE 2 -genv I_MPI_PLATFORM auto -genv PYTHONHOME /opt/crc/a/ansys/2024R1/v241/fluent/fluent24.1.0/../../commonfiles/CPython/3_10/linx64/Release/python -genv FLUENT_PROD_DIR /opt/crc/a/ansys/2024R1/v241/fluent/fluent24.1.0 -genv FLUENT_AFFINITY 0 -genv I_MPI_PIN enable -genv KMP_AFFINITY disabled -n 4 /opt/crc/a/ansys/2024R1/v241/fluent/fluent24.1.0/lnamd64/3ddp_node/fluent_mpi.24.1.0 node -mpiw intel -pic shmem -mport 10.32.93.3:10.32.93.3:37399:0

------------------------------------------------------------------------------------
ID    Hostname              Core  O.S.      PID              Vendor                
------------------------------------------------------------------------------------
n0-3  d32cepyc246.crc.nd.e  4/64  Linux-64  2850540-2850543  AMD EPYC 7543 32-Core 
host  d32cepyc246.crc.nd.e        Linux-64  2850074          AMD EPYC 7543 32-Core 

MPI Option Selected: intel
Selected system interconnect: shared-memory
------------------------------------------------------------------------------------


Initializing SGE
Done.
Cleanup script file is /tmp/926191.1.long/worker-241760-2840499/task.19/cleanup-fluent-d32cepyc246.crc.nd.edu-2850074.sh
Key Behavioral Changes:
Fluent Guided Meshing Workflows: 
Workflow template files (.wft) are now saved by default whenever the mesh is saved. You can change the automatic creation of .wft files in Preferences. 
Journaling: 
When Ansys Fluent encounters an invalid input in a journal file that is being replayed, it now raises an error condition and aborts the journal processing. 
Turbulence: 
The value of kappa used in the Spalart-Allmaras model for interior terms was inconsistent with the reference publications of the model. Fluent historically used a value of 0.4187, but to produce results consistent with the published model, the value should be 0.41. This issue was first addressed in a previous Fluent version and access to the kappa value was given in the GUI while keeping the old default of 0.4187. In Fluent 2024 R1, the default value is now changed to 0.41. 
Turbomachinery: 
For Blade Film Cooling, you can now specify stationary holes on the surfaces of a moving/rotating cell zone in transient cases. 
Boundaries previously referred to as "casings" in the Turbo Topology definition are now referred to as "shrouds." 
Density-Based Solver: 
The High Speed Numerics have been updated to increase the robustness of the Roe-FDS numerical flux against shock-instabilities and the carbuncle phenomenon. This modification may produce a slight solution change for cases combining Roe-FDS and HSN. 
Multiphase Models: 
Modeling of open channel flows in conjunction with the translation moving reference frame (MRF) has been improved resulting in more accurate and stable solution. In addition, a solution methodology has been suggested to provide better stability for high-speed hull simulations. 
Parallel Processing: 
Using dynamic process spawning now requires that you manually specify the interconnect as -pethernet for shared memory or distributed memory without InfiniBand, and -pib.ofed for distributed memory over InfiniBand. 
Refer to the Ansys, Inc. Release Notes for a full listing of the new features included in Ansys Fluent 2024 R1. 
 +------------------------------------------------------------------+
 |                    ANSYS Product Improvement                     |
 |                                                                  |
 |   ANSYS Product Improvement Program helps improve ANSYS          |
 |   products. Participating in this program is like filling out a  |
 |   survey. Without interrupting your work, the software reports   |
 |   anonymous usage information such as errors, machine and        |
 |   solver statistics, features used, etc. to ANSYS. We never      |
 |   use the data to identify or contact you.                       |
 |   The data does NOT contain:                                     |
 |   - Any personally identifiable information including names,     |
 |     IP addresses, file names, part names, etc.                   |
 |   - Any information about your geometry or design specific       |
 |     inputs.                                                      |
 |   You can stop participation at any time. To change your         |
 |   selection go to Help >> ANSYS Product Improvement Program      |
 |   in the GUI.                                                    |
 |   For more information about the ANSYS Privacy Policy, please    |
 |   check: http://www.ansys.com/privacy                            |
 |                                                                  |
 +------------------------------------------------------------------+

> Fast-loading "/opt/crc/a/ansys/2024R1/v241/fluent/fluent24.1.0/addons/afd/lib/hdfio.bin"
Done.
WARNING: Rank:0 Machine d32cepyc246.crc.nd.edu has 57 % of RAM filled with file buffer caches.
This can cause potential performance issues. Please use -cflush flag to flush the cache. 


Reading from d32cepyc246.crc.nd.edu:"/tmp/926191.1.long/worker-241760-2840499/task.19/case.cas.h5" in NODE0 mode ...
  Reading mesh ...
      114744 cells,     1 cell zone  ...
         114744 polyhedra cells,  zone id: 14422
      659728 faces,     7 face zones ...
           5706 polygonal symmetry faces,  zone id: 41
           5819 polygonal symmetry faces,  zone id: 42
            454 polygonal pressure-far-field faces,  zone id: 43
            464 polygonal pressure-far-field faces,  zone id: 44
           1889 polygonal pressure-far-field faces,  zone id: 45
          12654 polygonal wall faces,  zone id: 46
         632742 polygonal interior faces,  zone id: 14421
      481363 nodes,     1 node zone  ...
  Done.


Building...
     mesh
	auto partitioning mesh by Metis (fast),
	distributing mesh
		parts....,
		faces....,
		nodes....,
		cells....,
        bandwidth reduction using Reverse Cuthill-McKee: 29024/2203 = 13.1748
  Reading boundary layer flags ...
  Done.

     materials,
     interface,
     domains,
	mixture
     zones,
	symmetry1
	symmetry2
	outlet
	inlet
	farfield
	launchvehicle
	interior--flowfield
	flowfield
     parallel,
Done.

> adjoint/                parallel/               server/
define/                 parametric-study/       solve/
display/                plot/                   surface/
exit                    preferences/            turbo-workflow/
file/                   print-license-usage     views/
mesh/                   report/

> 
> adjoint/                parallel/               server/
define/                 parametric-study/       solve/
display/                plot/                   surface/
exit                    preferences/            turbo-workflow/
file/                   print-license-usage     views/
mesh/                   report/

> 
> adjoint/                parallel/               server/
define/                 parametric-study/       solve/
display/                plot/                   surface/
exit                    preferences/            turbo-workflow/
file/                   print-license-usage     views/
mesh/                   report/

> air is a fluid

Density
no data required.


> adjoint/                parallel/               server/
define/                 parametric-study/       solve/
display/                plot/                   surface/
exit                    preferences/            turbo-workflow/
file/                   print-license-usage     views/
mesh/                   report/

> (farfield inlet outlet)

> (farfield inlet outlet)

> (farfield inlet outlet)

> adjoint/                parallel/               server/
define/                 parametric-study/       solve/
display/                plot/                   surface/
exit                    preferences/            turbo-workflow/
file/                   print-license-usage     views/
mesh/                   report/

> (launchvehicle)

> adjoint/                parallel/               server/
define/                 parametric-study/       solve/
display/                plot/                   surface/
exit                    preferences/            turbo-workflow/
file/                   print-license-usage     views/
mesh/                   report/

> 
> 
> 
> 
> 
> 
> adjoint/                parallel/               server/
define/                 parametric-study/       solve/
display/                plot/                   surface/
exit                    preferences/            turbo-workflow/
file/                   print-license-usage     views/
mesh/                   report/

> 
> 
> 
> adjoint/                parallel/               server/
define/                 parametric-study/       solve/
display/                plot/                   surface/
exit                    preferences/            turbo-workflow/
file/                   print-license-usage     views/
mesh/                   report/

> 
> 
> 
> adjoint/                parallel/               server/
define/                 parametric-study/       solve/
display/                plot/                   surface/
exit                    preferences/            turbo-workflow/
file/                   print-license-usage     views/
mesh/                   report/

> 
> adjoint/                parallel/               server/
define/                 parametric-study/       solve/
display/                plot/                   surface/
exit                    preferences/            turbo-workflow/
file/                   print-license-usage     views/
mesh/                   report/

> 
Initialize using the hybrid initialization method.

Checking case topology... 
-This case has multiple farfield bc 
-Case will be initialized with constant parameters

	iter		scalar-0

	1		1.000000e+00
	2		7.743793e-04
	3		1.294095e-04
	4		1.968670e-05
	5		3.537597e-06
	6		6.444673e-07
	7		1.188224e-07
	8		2.233568e-08
	9		7.727135e-09
	10		1.510293e-09

Hybrid initialization is done.

Note: Settings to improve the robustness of pathline and
      particle tracking have been automatically enabled.


> 
  iter  continuity  x-velocity  y-velocity  z-velocity      energy           k       omega  report-def     time/iter
     1  1.0000e+00  1.0955e-03  1.1990e-03  1.6301e-03  1.0820e-05  9.5578e-01  4.8775e-01  1.5806e+00  0:05:08  499
     2  1.0000e+00  1.9354e-03  3.2496e-03  1.6043e-03  4.6969e-05  9.1873e-01  4.7837e-01  1.9876e+00  0:05:14  498
     3  1.0000e+00  2.1804e-03  3.4230e-03  2.4908e-03  4.9408e-05  8.5819e-01  4.6773e-01  1.6377e+00  0:05:20  497
     4  1.0000e+00  2.8990e-03  6.3614e-03  1.6155e-03  8.6997e-05  8.6026e-01  4.3401e-01  1.3953e+00  0:05:27  496
     5  1.0000e+00  3.1621e-03  8.1078e-03  5.7921e-03  4.0849e-04  8.6314e-01  4.1766e-01  1.0058e+00  0:05:31  495
     6  1.2571e+00  9.4104e-03  1.7910e-02  4.4441e-03  2.2331e-04  8.9335e-01  3.7765e-01  9.3175e-01  0:05:34  494
     7  1.4008e+00  7.8211e-03  1.1750e-02  6.1783e-03  5.1842e-04  8.1052e-01  3.7097e-01  8.0923e-01  0:05:39  493
     8  1.7221e+00  1.3596e-02  2.4618e-02  5.7758e-03  4.9173e-04  7.9962e-01  3.6557e-01  9.1674e-01  0:05:41  492
     9  1.5994e+00  1.4828e-02  1.5935e-02  5.6158e-03  5.7595e-04  7.2964e-01  3.5261e-01  2.9424e-01  0:05:44  491
    10  1.8861e+00  1.4379e-02  3.3065e-02  7.1446e-03  7.5352e-04  7.8344e-01  3.9271e-01  4.7949e-01  0:05:44  490
    11  1.9695e+00  2.4232e-02  2.3844e-02  6.5664e-03  1.0028e-03  8.8828e-01  4.4590e-01  2.1981e-02  0:05:45  489

  iter  continuity  x-velocity  y-velocity  z-velocity      energy           k       omega  report-def     time/iter
    12  2.0021e+00  1.7732e-02  4.1731e-02  7.4302e-03  8.7556e-04  7.8606e-01  4.1086e-01  1.1978e-01  0:05:43  488
    13  2.0905e+00  2.6350e-02  3.3540e-02  6.9331e-03  1.1149e-03  8.5847e-01  4.2754e-01 -9.6196e-02  0:05:41  487
    14  2.3405e+00  2.2828e-02  4.8714e-02  8.4372e-03  1.5884e-03  8.3523e-01  4.6347e-01 -2.2763e-01  0:05:39  486
    15  2.5441e+00  3.9092e-02  4.7170e-02  1.0170e-02  1.4624e-03  9.4606e-01  4.7807e-01  1.8027e-01  0:05:38  485
    16  2.5038e+00  2.3700e-02  5.1773e-02  8.9987e-03  2.0315e-03  8.4197e-01  4.7744e-01 -2.8910e-01  0:05:39  484
    17  3.0244e+00  4.5647e-02  6.3681e-02  1.3511e-02  2.3875e-03  9.8515e-01  5.1355e-01 -1.1164e-01  0:05:38  483
    18  2.8462e+00  2.9685e-02  6.6056e-02  1.2222e-02  2.5998e-03  8.3122e-01  4.6090e-01 -5.3905e-01  0:05:38  482
    19  3.3296e+00  5.9949e-02  7.0670e-02  1.6596e-02  4.6148e-03  9.7396e-01  5.4512e-01 -3.3014e-01  0:05:37  481
    20  3.1242e+00  4.0111e-02  8.6522e-02  1.9521e-02  3.1442e-03  8.7593e-01  4.9526e-01 -7.2694e-01  0:05:39  480
    21  3.5739e+00  6.6831e-02  7.9064e-02  2.0562e-02  4.0769e-03  1.2744e+00  7.2253e-01 -8.7182e-01  0:05:41  479
    22  3.4155e+00  4.9967e-02  9.0699e-02  2.1070e-02  4.4671e-03  9.3672e-01  4.8578e-01 -1.0151e+00  0:05:41  478

  iter  continuity  x-velocity  y-velocity  z-velocity      energy           k       omega  report-def     time/iter
    23  3.6809e+00  7.5591e-02  7.0159e-02  1.9999e-02  4.3427e-03  1.0979e+00  5.7979e-01 -1.1817e+00  0:05:37  477
    24  3.8211e+00  6.6264e-02  9.7567e-02  2.2688e-02  5.1291e-03  9.8218e-01  5.2069e-01 -1.0105e+00  0:05:34  476
    25  3.7838e+00  8.0474e-02  9.2584e-02  2.4612e-02  4.8817e-03  9.3124e-01  4.9226e-01 -1.7034e+00  0:05:31  475
    26  4.0420e+00  7.9608e-02  9.1212e-02  2.6873e-02  6.5748e-03  9.4943e-01  5.2454e-01 -7.8696e-01  0:05:28  474
    27  4.1262e+00  8.5827e-02  7.1082e-02  2.4901e-02  6.1596e-03  8.7492e-01  4.9752e-01 -1.3725e+00  0:05:27  473
    28  4.4469e+00  7.7188e-02  9.5481e-02  2.5814e-02  1.0826e-02  1.4812e+00  8.6696e-01 -1.1217e+00  0:05:24  472
    29  4.4827e+00  1.0196e-01  8.0311e-02  2.5155e-02  6.3049e-03  9.8732e-01  5.0830e-01 -2.2987e+00  0:05:22  471
    30  4.9799e+00  8.1675e-02  7.5648e-02  2.3810e-02  6.6296e-03  9.7530e-01  5.1103e-01 -4.1383e-01  0:05:20  470
    31  4.8602e+00  8.0730e-02  7.8396e-02  2.6633e-02  8.8325e-03  9.5731e-01  5.1772e-01 -4.2936e-01  0:05:18  469
    32  4.7318e+00  8.7291e-02  9.6458e-02  2.6539e-02  1.1026e-02  1.0169e+00  5.3089e-01  8.6499e-02  0:05:17  468
    33  4.7871e+00  8.3553e-02  9.4691e-02  2.5904e-02  6.5597e-03  9.8313e-01  5.0633e-01 -6.8904e-01  0:05:16  467

  iter  continuity  x-velocity  y-velocity  z-velocity      energy           k       omega  report-def     time/iter
    34  5.5285e+00  9.4100e-02  8.6227e-02  2.7271e-02  1.0009e-02  1.0971e+00  5.6512e-01  2.4106e-01  0:05:15  466
    35  5.4402e+00  9.3887e-02  8.1223e-02  2.5611e-02  8.8534e-03  1.0044e+00  5.1839e-01  3.6151e-01  0:05:14  465
    36  5.6721e+00  8.9289e-02  9.0816e-02  2.4563e-02  1.0445e-02  1.0129e+00  5.3129e-01  7.9607e-01  0:05:14  464
    37  5.2990e+00  9.3472e-02  8.8018e-02  2.6649e-02  2.3149e-02  9.8918e-01  5.0909e-01  2.5923e-01  0:05:12  463
    38  6.1985e+00  1.2504e-01  9.3515e-02  3.1787e-02  1.1271e-02  1.0165e+00  5.2477e-01  4.7804e-01  0:05:11  462
    39  5.8065e+00  1.0271e-01  9.0132e-02  2.7081e-02  8.0544e-03  9.6179e-01  5.0062e-01  5.6629e-01  0:05:11  461
    40  5.6915e+00  8.9261e-02  1.0338e-01  2.7665e-02  1.0389e-02  1.0010e+00  5.1543e-01  9.6988e-01  0:05:11  460
    41  5.8419e+00  8.6031e-02  1.0318e-01  2.6708e-02  1.0920e-02  1.0567e+00  5.4335e-01  3.4857e-01  0:05:13  459
    42  6.2821e+00  1.1002e-01  9.2921e-02  2.9834e-02  1.1284e-02  1.0700e+00  5.6538e-01  6.5360e-01  0:05:13  458
    43  6.1716e+00  9.1472e-02  8.9119e-02  2.6123e-02  2.1849e-02  9.7904e-01  5.2433e-01  4.4103e-02  0:05:12  457
    44  6.9033e+00  1.2768e-01  8.7484e-02  2.7629e-02  1.2764e-02  1.0244e+00  5.3194e-01  4.9789e-01  0:05:11  456

  iter  continuity  x-velocity  y-velocity  z-velocity      energy           k       omega  report-def     time/iter
    45  6.7849e+00  9.9563e-02  8.0923e-02  2.6340e-02  1.0408e-02  9.9565e-01  5.2325e-01 -1.9149e-01  0:05:09  455
    46  7.3239e+00  1.0513e-01  9.0848e-02  2.8656e-02  1.0515e-02  9.8858e-01  5.2278e-01  8.9547e-01  0:05:08  454
    47  6.8313e+00  9.4223e-02  8.3256e-02  2.8549e-02  9.9815e-03  1.0112e+00  5.3087e-01  2.1379e-01  0:05:08  453
    48  7.5857e+00  9.7292e-02  1.0553e-01  3.1542e-02  1.3284e-02  1.0148e+00  5.2598e-01  6.7427e-01  0:05:08  452
    49  7.6878e+00  1.0595e-01  8.7414e-02  2.8568e-02  9.9576e-03  1.0304e+00  5.4523e-01  1.1351e+00  0:05:08  451
    50  7.6675e+00  1.0537e-01  9.3639e-02  2.9587e-02  1.4556e-02  1.0140e+00  5.3133e-01  4.3248e-01  0:05:11  450
    51  8.0167e+00  9.7593e-02  8.4113e-02  2.7728e-02  1.2171e-02  9.9999e-01  5.2525e-01  1.5652e+00  0:05:13  449
    52  8.4563e+00  9.8219e-02  9.3938e-02  2.9150e-02  1.3675e-02  1.0426e+00  5.5438e-01  2.0752e+00  0:05:13  448
    53  8.5497e+00  1.0323e-01  7.8591e-02  2.9759e-02  1.4500e-02  1.0180e+00  5.3529e-01  2.4714e+00  0:05:13  447
    54  8.6834e+00  1.0565e-01  8.6489e-02  3.0058e-02  1.3660e-02  1.0592e+00  5.5950e-01  8.8041e-01  0:05:14  446
    55  8.7345e+00  9.1967e-02  9.4555e-02  3.0171e-02  1.8540e-02  1.0273e+00  5.4068e-01 -1.5638e-01  0:05:14  445

  iter  continuity  x-velocity  y-velocity  z-velocity      energy           k       omega  report-def     time/iter
    56  9.3621e+00  1.1254e-01  8.8717e-02  3.1217e-02  1.5039e-02  1.0068e+00  5.1523e-01  1.1013e+00  0:05:13  444
    57  9.3639e+00  1.0057e-01  8.9411e-02  3.0178e-02  1.2970e-02  9.9589e-01  5.1544e-01  8.2969e-01  0:05:12  443
    58  9.4187e+00  1.0071e-01  1.0078e-01  3.0572e-02  1.2136e-02  1.0161e+00  5.2342e-01  7.8097e-01  0:05:10  442
    59  9.5702e+00  8.9631e-02  9.3684e-02  2.9696e-02  1.9871e-02  1.0588e+00  5.4133e-01 -2.8866e-01  0:05:12  441
    60  1.0284e+01  9.8796e-02  8.7811e-02  2.8165e-02  1.6408e-02  9.8717e-01  5.0666e-01  6.8944e-01  0:05:12  440
    61  1.0645e+01  8.8982e-02  8.4903e-02  2.8322e-02  2.3237e-02  1.1352e+00  5.9066e-01  9.6814e-01  0:05:11  439
    62  1.0368e+01  1.0493e-01  8.5382e-02  2.8589e-02  1.5879e-02  1.0739e+00  5.6696e-01  9.1281e-01  0:05:10  438
    63  1.0509e+01  9.8212e-02  1.0200e-01  3.0608e-02  1.5430e-02  9.8924e-01  5.0579e-01 -1.0371e+00  0:05:09  437
    64  1.1038e+01  1.0689e-01  9.6411e-02  3.5095e-02  1.7800e-02  9.8850e-01  5.0965e-01 -9.0337e-01  0:05:08  436
    65  1.1949e+01  1.0428e-01  1.0002e-01  3.3950e-02  1.7502e-02  1.0072e+00  5.1035e-01  9.1115e-01  0:05:07  435
    66  1.1267e+01  8.7146e-02  9.4509e-02  3.1717e-02  3.6544e-02  1.0585e+00  5.3758e-01  1.1261e+00  0:05:05  434

  iter  continuity  x-velocity  y-velocity  z-velocity      energy           k       omega  report-def     time/iter
    67  1.1275e+01  1.1616e-01  9.2470e-02  2.8793e-02  2.6721e-02  1.0595e+00  5.5365e-01 -1.1424e-03  0:05:04  433
    68  1.2778e+01  1.0504e-01  9.5082e-02  3.1347e-02  2.2785e-02  1.0434e+00  5.3968e-01 -6.2786e-01  0:05:03  432
    69  1.2799e+01  9.7665e-02  8.7492e-02  3.0657e-02  1.6649e-02  9.9574e-01  5.1855e-01  5.6326e-01  0:05:02  431
    70  1.2450e+01  8.9644e-02  1.0252e-01  3.0140e-02  4.4377e-02  1.0555e+00  5.4151e-01  1.8493e+00  0:05:01  430
    71  1.2233e+01  1.1678e-01  7.9874e-02  3.0414e-02  2.6042e-02  1.0088e+00  5.2046e-01  1.1972e+00  0:04:59  429
    72  1.3802e+01  1.0950e-01  1.0443e-01  3.3022e-02  1.7567e-02  1.0434e+00  5.3751e-01  4.5054e-01  0:04:58  428
    73  1.3624e+01  9.1337e-02  9.2218e-02  3.2259e-02  1.7913e-02  9.8926e-01  5.0808e-01  3.5681e-01  0:04:57  427
    74  1.3134e+01  9.9650e-02  9.2013e-02  3.0967e-02  1.8662e-02  1.0811e+00  5.5074e-01  1.0000e+00  0:04:57  426
    75  1.2963e+01  8.9309e-02  8.8965e-02  2.9176e-02  1.8394e-02  1.0292e+00  5.3073e-01  1.5897e+00  0:04:56  425
    76  1.5016e+01  9.7389e-02  9.4874e-02  3.0532e-02  2.4122e-02  1.0419e+00  5.4017e-01  8.3296e-01  0:04:54  424
    77  1.4382e+01  8.4189e-02  8.8235e-02  2.6717e-02  1.7129e-02  1.0032e+00  5.2078e-01  8.0727e-01  0:04:52  423

  iter  continuity  x-velocity  y-velocity  z-velocity      energy           k       omega  report-def     time/iter
    78  1.4582e+01  8.2580e-02  9.1017e-02  2.6879e-02  2.0733e-02  1.1187e+00  5.6727e-01  1.3130e+00  0:04:51  422
    79  1.4106e+01  8.3654e-02  8.9559e-02  2.9717e-02  2.3833e-02  1.0224e+00  5.3083e-01  2.3774e+00  0:04:50  421
    80  1.5851e+01  9.9605e-02  1.0160e-01  3.4718e-02  3.6539e-02  1.0023e+00  5.1537e-01  2.2240e+00  0:04:49  420
    81  1.6241e+01  1.0375e-01  1.0084e-01  3.3667e-02  2.1946e-02  1.0264e+00  5.3661e-01  3.5610e+00  0:04:49  419
    82  1.6447e+01  1.0104e-01  8.8987e-02  2.8998e-02  2.2549e-02  1.0310e+00  5.3127e-01  4.1194e+00  0:04:48  418
    83  1.5227e+01  7.7693e-02  8.3023e-02  2.8168e-02  3.2348e-02  1.0318e+00  5.3170e-01  2.8326e+00  0:04:50  417
    84  1.7760e+01  1.1018e-01  8.6652e-02  3.1886e-02  3.1761e-02  1.0945e+00  5.6960e-01  3.4068e+00  0:04:48  416
    85  1.7144e+01  1.0321e-01  7.9026e-02  3.0280e-02  2.1660e-02  9.9980e-01  5.1244e-01  2.2222e+00  0:04:48  415
    86  1.8835e+01  9.4437e-02  9.5893e-02  2.9971e-02  3.0496e-02  1.0274e+00  5.2966e-01  2.5284e+00  0:04:47  414
    87  1.7253e+01  8.5079e-02  9.1724e-02  3.0155e-02  2.1530e-02  1.0250e+00  5.2298e-01  2.2061e+00  0:04:46  413
    88  1.8812e+01  8.1669e-02  1.0222e-01  3.1361e-02  2.6605e-02  1.0999e+00  5.6550e-01  8.7076e-02  0:04:46  412

  iter  continuity  x-velocity  y-velocity  z-velocity      energy           k       omega  report-def     time/iter
    89  1.8927e+01  8.8266e-02  8.7735e-02  3.1540e-02  2.9860e-02  1.0031e+00  5.1214e-01  2.8093e-01  0:04:46  411
    90  2.0468e+01  9.0117e-02  1.0390e-01  3.1805e-02  2.5896e-02  1.0369e+00  5.3259e-01  1.8841e+00  0:04:45  410
    91  1.9639e+01  7.9065e-02  9.3174e-02  2.8350e-02  2.8600e-02  1.0229e+00  5.2371e-01  1.1027e+00  0:04:44  409
    92  2.0993e+01  9.8541e-02  8.6204e-02  3.0338e-02  2.6415e-02  1.0335e+00  5.2674e-01  3.4185e-01  0:04:44  408
    93  1.9709e+01  9.7949e-02  9.2965e-02  3.1419e-02  2.3576e-02  1.0471e+00  5.3999e-01 -1.8617e+00  0:04:44  407
    94  2.1993e+01  9.9375e-02  9.9280e-02  3.2943e-02  3.0139e-02  1.0261e+00  5.2402e-01 -4.3147e-01  0:04:45  406
    95  2.1624e+01  9.0891e-02  9.6089e-02  2.9461e-02  4.2535e-02  1.0188e+00  5.1987e-01  1.8827e-01  0:04:44  405
    96  2.2264e+01  8.7815e-02  1.1498e-01  3.2676e-02  3.3831e-02  1.0292e+00  5.2013e-01 -3.9094e+00  0:04:43  404
    97  2.0681e+01  9.6842e-02  8.5268e-02  2.9011e-02  2.6301e-02  1.0449e+00  5.3056e-01 -3.2900e+00  0:04:42  403
    98  2.2308e+01  9.9417e-02  1.1192e-01  3.4251e-02  3.4212e-02  1.0668e+00  5.4366e-01 -1.7886e-01  0:04:42  402
    99  2.3310e+01  9.6295e-02  1.0749e-01  3.1763e-02  4.4158e-02  1.0042e+00  5.1137e-01  1.7552e+00  0:04:41  401

  iter  continuity  x-velocity  y-velocity  z-velocity      energy           k       omega  report-def     time/iter
   100  2.4116e+01  1.1320e-01  9.1924e-02  3.2155e-02  3.7840e-02  1.0426e+00  5.2959e-01  4.5839e-01  0:04:40  400
   101  2.1760e+01  9.5081e-02  8.8429e-02  2.9294e-02  3.0854e-02  1.0122e+00  5.1638e-01 -1.0642e+00  0:04:40  399
   102  2.3791e+01  1.0908e-01  9.2366e-02  3.4277e-02  3.3116e-02  1.0522e+00  5.4028e-01  1.8517e+00  0:04:39  398
   103  2.3862e+01  1.1014e-01  1.0103e-01  3.3695e-02  2.9955e-02  1.0643e+00  5.4659e-01  1.1076e+00  0:04:38  397
   104  2.4808e+01  8.2375e-02  1.0687e-01  3.3549e-02  2.9980e-02  1.0296e+00  5.2696e-01 -4.7922e-01  0:04:37  396
   105  2.3027e+01  9.7034e-02  8.7549e-02  2.9960e-02  4.1364e-02  1.0437e+00  5.3682e-01  1.7819e+00  0:04:36  395
   106  2.6420e+01  9.5544e-02  1.2203e-01  3.3294e-02  3.0315e-02  1.0490e+00  5.3827e-01  4.7557e+00  0:04:35  394
   107  2.4097e+01  9.1285e-02  9.5653e-02  3.0856e-02  2.5475e-02  9.9844e-01  5.0855e-01  5.0118e+00  0:04:34  393
   108  2.6310e+01  1.0920e-01  1.0541e-01  3.5533e-02  3.2093e-02  1.0868e+00  5.4290e-01  3.7479e+00  0:04:33  392
   109  2.4750e+01  8.2930e-02  9.7589e-02  3.0660e-02  4.2749e-02  1.0113e+00  5.1437e-01  2.0247e+00  0:04:32  391
   110  2.7606e+01  1.0929e-01  1.1092e-01  3.3416e-02  3.2271e-02  1.0554e+00  5.3286e-01  2.8765e+00  0:04:31  390

  iter  continuity  x-velocity  y-velocity  z-velocity      energy           k       omega  report-def     time/iter
   111  2.5363e+01  9.2686e-02  9.2493e-02  3.1553e-02  2.8491e-02  1.0407e+00  5.2950e-01 -1.9818e+00  0:04:31  389
   112  2.8550e+01  1.0603e-01  9.7794e-02  3.4502e-02  2.6248e-02  1.0717e+00  5.4738e-01 -5.2411e+00  0:04:31  388
   113  2.5879e+01  9.3119e-02  9.2965e-02  3.3937e-02  3.4413e-02  1.0098e+00  5.1461e-01 -4.4154e+00  0:04:30  387
   114  2.8280e+01  9.9084e-02  1.1522e-01  3.6928e-02  3.0014e-02  1.0458e+00  5.2965e-01 -9.7916e-01  0:04:32  386
   115  2.5595e+01  8.2365e-02  9.6097e-02  3.1129e-02  2.5992e-02  1.0110e+00  5.1229e-01 -3.2672e+00  0:04:33  385
   116  3.1558e+01  1.0445e-01  1.0868e-01  3.8204e-02  3.4932e-02  1.0944e+00  5.5120e-01 -9.3130e+00  0:04:32  384
   117  2.6118e+01  8.1187e-02  9.0244e-02  3.0677e-02  3.4437e-02  1.0260e+00  5.2117e-01 -7.1686e+00  0:04:30  383
   118  3.0796e+01  1.0527e-01  1.0140e-01  3.4233e-02  3.0454e-02  1.0762e+00  5.4864e-01 -1.8462e+00  0:04:28  382
   119  2.9384e+01  8.7327e-02  9.0876e-02  3.2200e-02  3.0517e-02  1.0283e+00  5.2394e-01 -4.1526e+00  0:04:27  381
   120  3.5499e+01  1.1143e-01  8.4624e-02  3.3169e-02  3.3384e-02  1.0428e+00  5.3324e-01 -1.0028e+01  0:04:28  380
   121  2.8250e+01  8.5798e-02  8.4547e-02  3.1161e-02  5.4145e-02  9.9533e-01  5.0574e-01 -1.4626e+01  0:04:28  379

  iter  continuity  x-velocity  y-velocity  z-velocity      energy           k       omega  report-def     time/iter
   122  3.4335e+01  1.4402e-01  9.1274e-02  3.5627e-02  4.3505e-02  1.1522e+00  5.6719e-01 -4.4862e+00  0:04:29  378
   123  2.9849e+01  7.4972e-02  1.0010e-01  3.3022e-02  2.4519e-02  1.0003e+00  5.0570e-01 -2.1618e-01  0:04:28  377
   124  3.7198e+01  1.1922e-01  1.1327e-01  4.3195e-02  3.6572e-02  1.0893e+00  5.4667e-01 -5.7676e+00  0:04:26  376
   125  3.0481e+01  8.3115e-02  8.1430e-02  3.1978e-02  2.6501e-02  1.0077e+00  5.1527e-01 -1.9999e+00  0:04:25  375
   126  3.5295e+01  1.0756e-01  9.6979e-02  3.6816e-02  4.6285e-02  1.1245e+00  5.7368e-01  4.3719e+00  0:04:25  374
   127  3.1125e+01  8.9588e-02  1.0573e-01  3.5763e-02  2.4498e-02  1.0195e+00  5.1757e-01  5.3688e+00  0:04:26  373
   128  3.6811e+01  1.1413e-01  1.0011e-01  4.0512e-02  2.6409e-02  1.0354e+00  5.2685e-01  2.6880e+00  0:04:27  372
   129  3.1986e+01  8.4898e-02  8.7876e-02  3.3912e-02  3.5566e-02  1.0070e+00  5.1126e-01  7.9082e+00  0:04:26  371
   130  3.5894e+01  1.0228e-01  1.2117e-01  3.8176e-02  4.0905e-02  1.0623e+00  5.3073e-01  1.0814e+01  0:04:25  370
   131  3.1498e+01  9.3250e-02  9.7703e-02  3.1604e-02  2.1571e-02  1.0082e+00  5.0770e-01  1.0157e+01  0:04:25  369
   132  3.8440e+01  1.0704e-01  9.8136e-02  3.6839e-02  4.0363e-02  1.1526e+00  5.6968e-01  4.7419e+00  0:04:26  368

  iter  continuity  x-velocity  y-velocity  z-velocity      energy           k       omega  report-def     time/iter
   133  3.3850e+01  8.8677e-02  7.9197e-02  3.1890e-02  2.8724e-02  1.0072e+00  5.1063e-01  4.5597e+00  0:04:25  367
   134  3.9540e+01  1.1072e-01  1.1282e-01  3.6870e-02  4.5267e-02  1.1388e+00  5.7794e-01  4.1830e+00  0:04:23  366
   135  3.4392e+01  1.0080e-01  9.5558e-02  3.4198e-02  3.6449e-02  1.0089e+00  5.1261e-01  2.2571e+00  0:04:22  365
   136  3.8251e+01  1.0080e-01  8.7637e-02  3.5350e-02  2.9238e-02  1.0755e+00  5.4567e-01 -3.6744e+00  0:04:22  364
   137  3.6991e+01  9.5716e-02  9.9969e-02  3.5328e-02  2.6320e-02  1.0179e+00  5.2103e-01 -7.8377e+00  0:04:22  363
   138  3.6986e+01  9.5406e-02  9.5347e-02  3.4224e-02  2.8819e-02  1.0225e+00  5.1522e-01 -5.4054e+00  0:04:22  362
   139  3.4962e+01  9.2601e-02  1.0490e-01  3.5248e-02  3.9793e-02  1.0413e+00  5.2437e-01 -8.1697e+00  0:04:21  361
   140  3.9050e+01  9.6897e-02  1.0118e-01  3.5032e-02  3.5145e-02  1.0389e+00  5.2344e-01 -1.9227e+01  0:04:20  360
   141  3.6948e+01  8.6871e-02  7.9587e-02  2.9191e-02  2.5420e-02  1.0252e+00  5.2002e-01 -2.3917e+01  0:04:19  359
   142  3.9755e+01  8.8764e-02  9.2383e-02  3.0526e-02  3.5425e-02  1.0895e+00  5.5604e-01 -1.4674e+01  0:04:25  358
   143  3.6463e+01  9.4493e-02  8.9609e-02  3.1390e-02  2.7664e-02  1.0225e+00  5.1945e-01 -3.8435e+00  0:04:15  357

  iter  continuity  x-velocity  y-velocity  z-velocity      energy           k       omega  report-def     time/iter
   144  4.1321e+01  1.0561e-01  1.0051e-01  3.9032e-02  3.1921e-02  1.0461e+00  5.3036e-01 -1.1600e+01  0:04:15  356
   145  3.9490e+01  8.4141e-02  9.7041e-02  3.2894e-02  2.2939e-02  1.0187e+00  5.2022e-01 -1.8568e+01  0:04:15  355
   146  4.2609e+01  8.7103e-02  9.0734e-02  3.1257e-02  2.5614e-02  1.0417e+00  5.2204e-01 -1.0604e+01  0:04:25  354
   147  3.8571e+01  9.3156e-02  8.4501e-02  3.2702e-02  3.0529e-02  1.0320e+00  5.1802e-01  2.0669e+00  0:04:23  353
   148  4.2577e+01  1.0579e-01  9.7147e-02  3.6191e-02  3.2349e-02  1.0551e+00  5.3135e-01  2.8545e+00  0:04:22  352
   149  4.2085e+01  9.1766e-02  8.8040e-02  3.2871e-02  3.1585e-02  1.0369e+00  5.2395e-01  5.7443e+00  0:04:21  351
   150  4.3438e+01  9.4182e-02  1.0202e-01  3.3022e-02  3.8520e-02  1.0350e+00  5.2563e-01  6.3613e+00  0:04:18  350
   151  4.2520e+01  1.0860e-01  9.5202e-02  3.4076e-02  5.5581e-02  1.0820e+00  5.4685e-01  1.2335e+01  0:04:15  349
   152  4.4525e+01  9.8634e-02  9.7716e-02  3.2390e-02  5.1610e-02  1.0271e+00  5.2035e-01  5.6411e+00  0:04:14  348
   153  4.5282e+01  9.0957e-02  1.0582e-01  3.2243e-02  3.0037e-02  1.0305e+00  5.2351e-01  5.5660e+00  0:04:12  347
   154  4.6145e+01  9.9933e-02  1.0008e-01  3.5804e-02  3.1633e-02  1.0632e+00  5.3524e-01  6.7188e+00  0:04:12  346

  iter  continuity  x-velocity  y-velocity  z-velocity      energy           k       omega  report-def     time/iter
   155  4.3107e+01  1.0472e-01  9.7426e-02  3.4456e-02  3.4418e-02  1.0207e+00  5.1529e-01  1.0487e+01  0:04:10  345
   156  4.8101e+01  1.1398e-01  1.1133e-01  4.0211e-02  4.5856e-02  1.0545e+00  5.3116e-01  2.7490e+00  0:04:08  344
   157  4.5124e+01  1.0599e-01  8.4944e-02  3.2225e-02  3.3529e-02  1.0186e+00  5.1663e-01 -7.6554e-01  0:04:06  343
   158  4.7319e+01  1.0191e-01  1.0395e-01  3.7437e-02  3.3889e-02  1.0637e+00  5.3502e-01 -4.0652e+00  0:04:04  342
   159  4.3573e+01  1.0875e-01  8.9450e-02  3.4876e-02  3.7311e-02  1.0307e+00  5.1986e-01  6.8022e-01  0:04:03  341
   160  4.9146e+01  1.0413e-01  1.1016e-01  3.6163e-02  6.3551e-02  1.0729e+00  5.4605e-01 -5.8153e+00  0:04:03  340
   161  4.8022e+01  9.2115e-02  8.7155e-02  3.0708e-02  2.8595e-02  1.0234e+00  5.1659e-01 -1.2699e+01  0:04:01  339
   162  4.9961e+01  9.4556e-02  9.9779e-02  3.5764e-02  4.7100e-02  1.0680e+00  5.4168e-01 -1.6003e+01  0:04:00  338
   163  4.7350e+01  9.2973e-02  9.2899e-02  3.2977e-02  3.9903e-02  1.0052e+00  5.0625e-01 -4.1801e+00  0:03:59  337
   164  4.9630e+01  1.0234e-01  9.8924e-02  3.3014e-02  2.6094e-02  1.0974e+00  5.4273e-01 -7.8374e+00  0:03:58  336
   165  5.0661e+01  8.8934e-02  9.6822e-02  3.4891e-02  4.0268e-02  1.0263e+00  5.1759e-01 -1.5921e+01  0:03:57  335

  iter  continuity  x-velocity  y-velocity  z-velocity      energy           k       omega  report-def     time/iter
   166  5.1329e+01  8.8135e-02  9.2160e-02  3.2661e-02  3.0364e-02  1.0378e+00  5.2048e-01 -1.7592e+01  0:03:57  334
   167  5.0516e+01  9.9357e-02  1.0369e-01  3.5191e-02  4.4705e-02  1.0756e+00  5.4396e-01  1.4017e+00  0:03:55  333
   168  5.1477e+01  9.8382e-02  9.4154e-02  3.1492e-02  3.5416e-02  1.0262e+00  5.2043e-01  1.2646e+00  0:03:54  332
   169  5.1800e+01  9.0431e-02  1.1263e-01  3.4765e-02  8.8617e-02  1.0367e+00  5.2708e-01 -2.4801e+00  0:03:52  331
   170  5.2577e+01  1.2556e-01  1.0023e-01  4.2022e-02  3.9972e-02  1.0472e+00  5.2786e-01 -1.0155e+01  0:03:52  330
   171  4.8667e+01  1.0579e-01  9.6113e-02  3.5701e-02  4.0779e-02  1.0273e+00  5.1769e-01  3.8039e+00  0:03:47  329
   172  5.1691e+01  1.1573e-01  1.1395e-01  3.8890e-02  3.4620e-02  1.0351e+00  5.1982e-01  3.4496e+00  0:03:47  328
   173  5.0319e+01  9.3956e-02  1.1111e-01  3.7352e-02  3.7022e-02  1.0333e+00  5.2148e-01 -2.9774e+00  0:03:47  327
   174  5.3324e+01  1.1182e-01  9.9242e-02  3.5077e-02  3.2290e-02  1.0375e+00  5.2078e-01 -7.7774e+00  0:03:47  326
   175  4.8974e+01  1.1290e-01  1.0716e-01  3.6099e-02  3.9084e-02  1.0848e+00  5.4425e-01  6.2389e-01  0:03:46  325
   176  4.9737e+01  1.1298e-01  9.5710e-02  3.5798e-02  4.5174e-02  1.0274e+00  5.2160e-01  2.0309e+00  0:03:46  324

  iter  continuity  x-velocity  y-velocity  z-velocity      energy           k       omega  report-def     time/iter
   177  5.2720e+01  9.6195e-02  1.1042e-01  3.4946e-02  2.9092e-02  1.0400e+00  5.2584e-01 -1.0227e+01  0:03:45  323
   178  5.1651e+01  9.7837e-02  9.6071e-02  3.3596e-02  3.7670e-02  1.0436e+00  5.3140e-01 -1.7339e+01  0:03:45  322
   179  5.0541e+01  1.0040e-01  9.7902e-02  3.2788e-02  3.0006e-02  1.0532e+00  5.3537e-01 -7.2666e+00  0:03:44  321
   180  4.9303e+01  9.5925e-02  9.1075e-02  3.1935e-02  3.8832e-02  1.0229e+00  5.1693e-01 -1.2505e+01  0:03:43  320
   181  5.1463e+01  1.0520e-01  9.7967e-02  3.2591e-02  3.0417e-02  1.0404e+00  5.2799e-01 -1.9080e+01  0:03:42  319
   182  5.1505e+01  9.5183e-02  9.5931e-02  3.3415e-02  5.7012e-02  1.0356e+00  5.2033e-01 -2.9921e+01  0:03:41  318
   183  5.2377e+01  9.2124e-02  9.9226e-02  3.1447e-02  4.5581e-02  1.0192e+00  5.1321e-01 -2.2102e+01  0:03:40  317
   184  5.2311e+01  1.0128e-01  9.4977e-02  3.1099e-02  9.7204e-02  1.0541e+00  5.2850e-01 -2.1667e+01  0:03:40  316
   185  5.3704e+01  9.2067e-02  1.2193e-01  3.4226e-02  5.1006e-02  1.0584e+00  5.3005e-01 -2.5849e+01  0:03:39  315
   186  5.2676e+01  9.7799e-02  1.0377e-01  3.3563e-02  3.5092e-02  1.0470e+00  5.2981e-01 -2.4063e+01  0:03:39  314
   187  5.3082e+01  1.0669e-01  1.0127e-01  3.5881e-02  1.1096e-01  1.0480e+00  5.2853e-01 -1.5864e+01  0:03:34  313

  iter  continuity  x-velocity  y-velocity  z-velocity      energy           k       omega  report-def     time/iter
   188  5.3865e+01  1.2802e-01  9.5108e-02  3.5083e-02  4.5533e-02  1.0394e+00  5.2723e-01 -6.0264e+00  0:03:29  312
   189  5.2547e+01  1.0012e-01  1.0245e-01  3.3800e-02  3.8151e-02  1.0419e+00  5.2474e-01 -5.9055e+00  0:03:30  311
   190  5.3048e+01  1.1115e-01  1.1385e-01  3.6322e-02  3.8341e-02  1.0292e+00  5.1836e-01 -9.2541e+00  0:03:31  310
   191  5.2094e+01  1.0937e-01  1.1291e-01  3.5652e-02  6.8132e-02  1.0112e+00  5.1073e-01  5.2702e-01  0:03:31  309
   192  5.5056e+01  1.2817e-01  1.1069e-01  3.5136e-02  4.4963e-02  1.0686e+00  5.3420e-01  5.5993e+00  0:03:31  308
   193  5.1092e+01  1.0447e-01  9.5928e-02  3.2445e-02  3.5288e-02  1.0411e+00  5.2643e-01  5.4905e+00  0:03:30  307
   194  5.3199e+01  1.1608e-01  1.0357e-01  3.7548e-02  6.7267e-02  1.0517e+00  5.3226e-01 -7.7210e-01  0:03:26  306
   195  5.2571e+01  1.0151e-01  1.1549e-01  3.4518e-02  4.1432e-02  1.0389e+00  5.2672e-01  6.1486e+00  0:03:26  305
   196  5.6574e+01  8.9878e-02  1.1050e-01  3.3482e-02  3.7856e-02  1.0355e+00  5.2730e-01  9.0264e+00  0:03:27  304
   197  5.3488e+01  8.2095e-02  9.3723e-02  3.0852e-02  3.7924e-02  1.0326e+00  5.2265e-01  4.4493e+00  0:03:24  303
   198  5.9883e+01  9.7506e-02  1.1261e-01  3.6077e-02  4.1262e-02  1.0482e+00  5.2997e-01 -7.3275e+00  0:03:25  302

  iter  continuity  x-velocity  y-velocity  z-velocity      energy           k       omega  report-def     time/iter
   199  5.3040e+01  8.5902e-02  9.1021e-02  3.1702e-02  2.2948e-02  1.0097e+00  5.1043e-01 -7.6967e-01  0:03:26  301
   200  5.8816e+01  9.7251e-02  1.0392e-01  3.6563e-02  4.2746e-02  1.0893e+00  5.4773e-01  1.1794e+00  0:03:23  300
   201  5.7478e+01  9.4483e-02  9.2004e-02  3.2440e-02  3.2683e-02  1.0168e+00  5.1146e-01 -6.1728e+00  0:03:24  299
   202  6.0080e+01  1.0431e-01  9.5778e-02  3.5548e-02  4.6169e-02  1.1124e+00  5.5988e-01 -2.4130e+01  0:03:22  298
   203  5.9985e+01  8.3668e-02  9.9816e-02  3.3715e-02  5.8218e-02  1.0329e+00  5.2528e-01 -9.5166e+00  0:03:23  297
   204  6.3911e+01  8.8842e-02  9.0433e-02  2.9182e-02  3.1882e-02  1.0570e+00  5.3544e-01 -1.6508e+01  0:03:24  296
   205  5.8580e+01  7.4267e-02  9.4780e-02  3.0650e-02  3.9465e-02  1.0329e+00  5.2432e-01 -2.8537e+01  0:03:22  295
   206  6.7861e+01  8.7600e-02  1.0840e-01  3.4078e-02  3.2323e-02  1.0425e+00  5.2508e-01 -3.9013e+01  0:03:23  294
   207  5.8586e+01  8.8700e-02  6.8395e-02  2.8380e-02  3.0357e-02  1.0252e+00  5.1962e-01 -2.5419e+01  0:03:24  293
   208  6.9064e+01  1.0012e-01  9.3614e-02  3.4035e-02  3.6778e-02  1.0630e+00  5.4012e-01 -1.9531e+01  0:03:24  292
   209  6.3003e+01  6.8168e-02  8.0311e-02  3.0178e-02  3.0181e-02  1.0075e+00  5.0834e-01 -1.8295e+01  0:03:24  291

  iter  continuity  x-velocity  y-velocity  z-velocity      energy           k       omega  report-def     time/iter
   210  6.8302e+01  9.9040e-02  8.2114e-02  3.2197e-02  3.4785e-02  1.0796e+00  5.3795e-01 -3.3523e+01  0:03:24  290
   211  6.1612e+01  8.0806e-02  8.3959e-02  2.8218e-02  3.9746e-02  1.0268e+00  5.1742e-01 -1.7465e+01  0:03:24  289
   212  7.3467e+01  1.0230e-01  9.9758e-02  3.3315e-02  2.9270e-02  1.0684e+00  5.4037e-01 -2.5431e+00  0:03:24  288
   213  6.5230e+01  7.2919e-02  9.2701e-02  3.1353e-02  8.1598e-02  1.0125e+00  5.1074e-01  1.3323e+00  0:03:19  287
   214  7.6385e+01  1.0625e-01  1.0468e-01  3.6751e-02  3.4941e-02  1.1126e+00  5.5138e-01 -1.1944e+01  0:03:19  286
   215  6.5475e+01  8.8536e-02  7.5793e-02  2.9749e-02  3.3457e-02  1.0163e+00  5.1338e-01 -2.8630e+00  0:03:16  285
   216  8.3390e+01  1.0896e-01  9.9115e-02  3.5274e-02  4.0356e-02  1.0750e+00  5.3977e-01  7.7479e+00  0:03:16  284
   217  6.5250e+01  8.1731e-02  8.3947e-02  2.8045e-02  3.1825e-02  1.0255e+00  5.1876e-01  9.4462e+00  0:03:13  283
   218  8.0216e+01  1.2314e-01  1.1450e-01  4.0551e-02  4.1050e-02  1.0905e+00  5.5099e-01 -5.6697e+00  0:03:13  282
   219  6.9099e+01  9.0546e-02  8.2651e-02  3.1022e-02  2.7476e-02  1.0032e+00  5.0584e-01  3.0133e+00  0:03:10  281
   220  9.1573e+01  1.1452e-01  1.1168e-01  3.8273e-02  3.4425e-02  1.0803e+00  5.3603e-01  4.3666e+00  0:03:11  280

  iter  continuity  x-velocity  y-velocity  z-velocity      energy           k       omega  report-def     time/iter
   221  7.1631e+01  8.1898e-02  9.1041e-02  3.4865e-02  5.2120e-02  1.0193e+00  5.1395e-01  7.8672e+00  0:03:07  279
   222  8.4654e+01  1.2248e-01  9.3608e-02  3.6462e-02  4.0940e-02  1.0996e+00  5.5434e-01 -7.5532e+00  0:03:07  278
   223  7.5197e+01  9.1076e-02  8.5664e-02  2.9538e-02  8.6406e-02  1.0109e+00  5.0935e-01 -1.9671e+01  0:03:03  277
   224  9.5795e+01  1.2409e-01  9.9983e-02  3.6437e-02  4.1185e-02  1.0692e+00  5.3825e-01 -2.0177e+01  0:03:04  276
   225  7.3423e+01  7.8404e-02  8.7962e-02  3.2081e-02  2.9170e-02  1.0295e+00  5.2286e-01 -2.2410e+01  0:03:01  275
   226  9.2986e+01  1.0699e-01  1.0878e-01  4.1359e-02  3.8742e-02  1.0683e+00  5.4128e-01 -3.7746e+01  0:03:02  274
   227  8.0143e+01  8.8236e-02  7.3936e-02  2.9805e-02  2.4829e-02  1.0039e+00  5.0722e-01 -2.8722e+01  0:02:59  273
   228  1.0409e+02  1.0061e-01  9.9306e-02  3.6894e-02  3.3410e-02  1.0890e+00  5.3967e-01 -3.9237e+01  0:02:57  272
   229  8.2671e+01  7.1367e-02  7.4248e-02  3.0816e-02  3.4188e-02  1.0302e+00  5.2086e-01 -4.2466e+01  0:02:55  271
   230  1.0095e+02  1.0196e-01  8.4777e-02  3.3623e-02  4.3019e-02  1.1167e+00  5.6168e-01 -5.3497e+01  0:02:54  270
   231  9.3778e+01  7.3120e-02  6.8343e-02  2.5354e-02  2.2366e-02  1.0128e+00  5.1238e-01 -6.2360e+01  0:02:53  269

  iter  continuity  x-velocity  y-velocity  z-velocity      energy           k       omega  report-def     time/iter
   232  1.1552e+02  7.6011e-02  8.0021e-02  3.0253e-02  3.4856e-02  1.1014e+00  5.5309e-01 -7.3768e+01  0:02:53  268
   233  9.5087e+01  6.1054e-02  6.9057e-02  2.8725e-02  2.4209e-02  1.0239e+00  5.1941e-01 -7.6035e+01  0:02:52  267
   234  1.1323e+02  7.4530e-02  7.1119e-02  3.1416e-02  3.6590e-02  1.0906e+00  5.5046e-01 -6.7445e+01  0:02:51  266
   235  1.0636e+02  7.1386e-02  5.8275e-02  2.8775e-02  2.1974e-02  1.0081e+00  5.0827e-01 -5.5733e+01  0:02:54  265
   236  1.3001e+02  6.4927e-02  6.9797e-02  3.2563e-02  3.6360e-02  1.0626e+00  5.3192e-01 -7.2735e+01  0:02:52  264
   237  1.1720e+02  4.9031e-02  6.1756e-02  2.8614e-02  3.0640e-02  1.0531e+00  5.3612e-01 -6.5541e+01  0:02:50  263
   238  1.3578e+02  6.1959e-02  5.4106e-02  2.8115e-02  3.2431e-02  1.0631e+00  5.3691e-01 -4.9869e+01  0:02:48  262
   239  1.4168e+02  5.8472e-02  4.9012e-02  2.7173e-02  2.7891e-02  1.0136e+00  5.1766e-01 -3.8193e+01  0:02:50  261
   240  1.6660e+02  4.5590e-02  5.1628e-02  2.8826e-02  3.3637e-02  1.0206e+00  5.2049e-01 -1.6682e+01  0:02:48  260
   241  1.6822e+02  3.6924e-02  4.9498e-02  2.6236e-02  2.9603e-02  9.9511e-01  5.0563e-01  8.3916e+00  0:02:46  259
   242  1.9580e+02  3.9603e-02  3.7059e-02  2.5651e-02  2.8569e-02  1.0165e+00  5.0526e-01  5.1713e+01  0:02:45  258

  iter  continuity  x-velocity  y-velocity  z-velocity      energy           k       omega  report-def     time/iter
   243  2.3097e+02  3.7537e-02  3.3869e-02  2.4429e-02  2.6500e-02  9.2781e-01  4.6213e-01  9.9029e+01  0:02:44  257
   244  2.7143e+02  2.9662e-02  3.5205e-02  2.4441e-02  2.6032e-02  8.7843e-01  4.4573e-01  1.6445e+02  0:02:44  256
   245  3.2980e+02  2.6979e-02  3.1665e-02  2.2653e-02  2.0181e-02  8.3577e-01  4.2515e-01  2.4053e+02  0:02:44  255
   246  4.3677e+02  2.3420e-02  2.8429e-02  2.2291e-02  2.0677e-02  8.3686e-01  4.4782e-01  4.6253e+02  0:02:44  254
   247  5.6281e+02  2.4019e-02  2.3654e-02  2.1574e-02  1.7586e-02  8.2059e-01  4.2355e-01  7.1558e+02  0:02:44  253
   248  7.5729e+02  2.1043e-02  2.1656e-02  2.2095e-02  1.6888e-02  7.8794e-01  4.2005e-01  9.0074e+02  0:02:43  252
   249  1.0319e+03  2.0318e-02  2.1174e-02  2.2881e-02  1.6822e-02  7.6826e-01  4.0583e-01  1.1146e+03  0:02:43  251
   250  1.4588e+03  1.9931e-02  2.0533e-02  2.3847e-02  1.7579e-02  7.3071e-01  4.1186e-01  1.4538e+03  0:02:41  250
   251  2.1236e+03  2.0036e-02  1.9550e-02  2.5201e-02  1.7045e-02  7.6380e-01  4.2684e-01  2.0724e+03  0:02:41  249
   252  3.1371e+03  1.9607e-02  1.8747e-02  2.5699e-02  1.6078e-02  7.3338e-01  4.1009e-01  3.0681e+03  0:02:40  248
   253  4.6349e+03  1.8200e-02  1.8787e-02  2.5881e-02  1.4561e-02  7.4062e-01  4.1062e-01  4.1321e+03  0:02:39  247

  iter  continuity  x-velocity  y-velocity  z-velocity      energy           k       omega  report-def     time/iter
   254  6.7679e+03  1.7258e-02  1.8060e-02  2.5998e-02  1.4131e-02  7.1943e-01  3.8794e-01  4.9496e+03  0:02:39  246
   255  9.8624e+03  1.7129e-02  1.7623e-02  2.5801e-02  1.2972e-02  7.0485e-01  3.8488e-01  5.0043e+03  0:02:38  245
   256  1.4428e+04  1.6654e-02  1.6684e-02  2.5190e-02  1.2951e-02  6.4900e-01  3.6286e-01  3.0615e+03  0:02:37  244
   257  2.1262e+04  1.5909e-02  1.5918e-02  2.4167e-02  1.1537e-02  6.2651e-01  3.5801e-01 -9.1361e+02  0:02:37  243
   258  3.0856e+04  1.5184e-02  1.5500e-02  2.2340e-02  1.1350e-02  6.2207e-01  3.9123e-01 -7.4149e+03  0:02:36  242

 turbulent viscosity limited to viscosity ratio of 1.000000e+05 in 132 cells 
   259  4.3160e+04  1.6573e-02  1.6251e-02  2.1006e-02  1.1424e-02  6.4994e-01  3.6167e-01 -1.8627e+04  0:02:36  241

 turbulent viscosity limited to viscosity ratio of 1.000000e+05 in 709 cells 
   260  6.0821e+04  1.7396e-02  1.7812e-02  2.1129e-02  1.0933e-02  7.8115e-01  4.0352e-01 -2.5569e+04  0:02:35  240

 turbulent viscosity limited to viscosity ratio of 1.000000e+05 in 4260 cells 
   261  8.8460e+04  1.6830e-02  1.7981e-02  2.2249e-02  1.0213e-02  6.9620e-01  4.0075e-01 -2.5177e+04  0:02:34  239

 turbulent viscosity limited to viscosity ratio of 1.000000e+05 in 12959 cells 
   262  1.2964e+05  1.7787e-02  1.9675e-02  2.2156e-02  1.0847e-02  9.5558e-01  4.8549e-01 -3.0305e+04  0:02:34  238

 turbulent viscosity limited to viscosity ratio of 1.000000e+05 in 23836 cells 
   263  1.8764e+05  1.9161e-02  2.0637e-02  2.1722e-02  1.0762e-02  9.2594e-01  4.7244e-01 -4.5179e+04  0:02:33  237

 turbulent viscosity limited to viscosity ratio of 1.000000e+05 in 36873 cells 
   264  2.8030e+05  1.8357e-02  2.0352e-02  2.2044e-02  9.9473e-03  9.7839e-01  4.9080e-01 -6.8721e+04  0:02:32  236

 turbulent viscosity limited to viscosity ratio of 1.000000e+05 in 53954 cells 

  iter  continuity  x-velocity  y-velocity  z-velocity      energy           k       omega  report-def     time/iter
   265  4.2865e+05  1.7607e-02  2.0204e-02  2.1907e-02  1.1052e-02  9.6469e-01  4.8657e-01 -9.2062e+04  0:02:35  235

 turbulent viscosity limited to viscosity ratio of 1.000000e+05 in 66103 cells 
   266  6.0900e+05  1.8752e-02  2.2249e-02  2.2493e-02  8.9525e-03  8.6550e-01  4.4025e-01 -1.2746e+05  0:02:36  234

 turbulent viscosity limited to viscosity ratio of 1.000000e+05 in 72722 cells 
   267  8.6995e+05  1.6332e-02  1.8444e-02  2.1284e-02  8.7696e-03  7.1397e-01  3.9617e-01 -1.4345e+05  0:02:37  233

 turbulent viscosity limited to viscosity ratio of 1.000000e+05 in 77089 cells 
   268  1.2526e+06  1.7300e-02  1.8461e-02  2.1266e-02  1.0214e-02  8.8319e-01  4.4204e-01 -1.5449e+05  0:02:38  232

 turbulent viscosity limited to viscosity ratio of 1.000000e+05 in 79965 cells 
   269  1.8259e+06  1.8178e-02  2.0231e-02  2.1765e-02  9.8492e-03  8.7142e-01  4.3343e-01 -1.6540e+05  0:02:39  231

 turbulent viscosity limited to viscosity ratio of 1.000000e+05 in 84301 cells 
   270  2.5940e+06  1.6922e-02  1.9847e-02  2.2297e-02  9.2167e-03  9.3976e-01  4.4053e-01 -1.6060e+05  0:02:39  230

 turbulent viscosity limited to viscosity ratio of 1.000000e+05 in 87905 cells 
   271  3.7846e+06  1.7848e-02  1.9493e-02  2.1776e-02  9.7532e-03  9.3566e-01  4.7335e-01 -1.3586e+05  0:02:40  229

 turbulent viscosity limited to viscosity ratio of 1.000000e+05 in 92935 cells 
   272  5.5042e+06  1.7866e-02  1.9447e-02  2.1560e-02  9.5913e-03  9.4044e-01  4.6729e-01 -1.1471e+05  0:02:40  228

 turbulent viscosity limited to viscosity ratio of 1.000000e+05 in 96261 cells 
   273  8.1895e+06  1.6086e-02  1.9481e-02  2.1846e-02  9.7841e-03  8.6331e-01  4.5047e-01 -1.4731e+05  0:02:40  227

 absolute pressure limited to 5.000000e+10 in 83 cells on zone 14422 

 turbulent viscosity limited to viscosity ratio of 1.000000e+05 in 98152 cells 
   274  1.1711e+07  1.7215e-02  2.0419e-02  2.1232e-02  9.4818e-03  9.1365e-01  4.6370e-01  1.1754e+05  0:02:39  226

 absolute pressure limited to 5.000000e+10 in 871 cells on zone 14422 

 turbulent viscosity limited to viscosity ratio of 1.000000e+05 in 99067 cells 
   275  1.6505e+07  1.7869e-02  1.9658e-02  2.0924e-02  9.1688e-03  7.7096e-01  4.2305e-01  1.0991e+06  0:02:38  225

 absolute pressure limited to 5.000000e+10 in 114592 cells on zone 14422 

 turbulent viscosity limited to viscosity ratio of 1.000000e+05 in 98978 cells 

  iter  continuity  x-velocity  y-velocity  z-velocity      energy           k       omega  report-def     time/iter
   276  2.2741e+07  1.7111e-02  2.0651e-02  2.8524e-02  1.6114e-02  6.2972e-01  3.8690e-01 -4.0904e+04  0:02:39  224

 absolute pressure limited to 5.000000e+10 in 114738 cells on zone 14422 

 turbulent viscosity limited to viscosity ratio of 1.000000e+05 in 98008 cells 
   277  2.1873e+07  1.9066e-02  2.3729e-02  4.3971e-02  1.8367e-02  7.7872e-01  3.6559e-01 -2.6629e+04  0:02:35  223

 absolute pressure limited to 5.000000e+10 in 114738 cells on zone 14422 

 turbulent viscosity limited to viscosity ratio of 1.000000e+05 in 97497 cells 
   278  1.9328e+07  1.7225e-02  2.1808e-02  4.5574e-02  2.1181e-02  8.7462e-01  4.1263e-01 -1.2285e+04  0:02:31  222

 absolute pressure limited to 5.000000e+10 in 114633 cells on zone 14422 

 turbulent viscosity limited to viscosity ratio of 1.000000e+05 in 97862 cells 
   279  1.9666e+07  2.1383e-02  2.7596e-02  5.3905e-02  4.2277e-02  1.0133e+00  5.0613e-01 -2.4867e+03  0:02:28  221

 absolute pressure limited to 5.000000e+10 in 114537 cells on zone 14422 

 turbulent viscosity limited to viscosity ratio of 1.000000e+05 in 94257 cells 
   280  1.8189e+07  3.5069e-02  4.6158e-02  7.5867e-02  4.0367e-02  9.9946e-01  4.9938e-01 -6.0039e+02  0:02:26  220

 absolute pressure limited to 5.000000e+10 in 114702 cells on zone 14422 

 turbulent viscosity limited to viscosity ratio of 1.000000e+05 in 94512 cells 
   281  1.7458e+07  4.8997e-02  5.8691e-02  5.8630e-02  3.3712e-02  9.9698e-01  4.9869e-01  9.1751e+02  0:02:24  219

 absolute pressure limited to 5.000000e+10 in 114692 cells on zone 14422 

 turbulent viscosity limited to viscosity ratio of 1.000000e+05 in 93695 cells 
   282  1.5483e+07  4.0471e-02  5.4925e-02  5.9238e-02  3.4547e-02  1.0005e+00  5.0008e-01  4.2422e+03  0:02:22  218

 absolute pressure limited to 5.000000e+10 in 114700 cells on zone 14422 

 turbulent viscosity limited to viscosity ratio of 1.000000e+05 in 92622 cells 
   283  1.6664e+07  3.8710e-02  5.2110e-02  5.9060e-02  4.2571e-02  1.0028e+00  5.0061e-01  4.2708e+03  0:02:21  217

 absolute pressure limited to 5.000000e+10 in 114638 cells on zone 14422 

 turbulent viscosity limited to viscosity ratio of 1.000000e+05 in 90790 cells 
   284  1.9280e+07  4.2645e-02  5.7210e-02  6.4600e-02  4.6783e-02  1.0089e+00  5.0209e-01  4.4182e+03  0:02:22  216

 absolute pressure limited to 5.000000e+10 in 114661 cells on zone 14422 

 turbulent viscosity limited to viscosity ratio of 1.000000e+05 in 89422 cells 
   285  1.7284e+07  5.3269e-02  7.1116e-02  6.7850e-02  4.2772e-02  1.0015e+00  5.0104e-01  9.6516e+03  0:02:24  215

 absolute pressure limited to 5.000000e+10 in 114653 cells on zone 14422 

 turbulent viscosity limited to viscosity ratio of 1.000000e+05 in 87301 cells 
   286  1.6767e+07  4.8116e-02  6.7597e-02  6.9302e-02  3.9297e-02  1.0006e+00  4.9986e-01  1.2866e+04  0:02:26  214

 absolute pressure limited to 5.000000e+10 in 114580 cells on zone 14422 

 turbulent viscosity limited to viscosity ratio of 1.000000e+05 in 85601 cells 

  iter  continuity  x-velocity  y-velocity  z-velocity      energy           k       omega  report-def     time/iter
   287  1.6295e+07  4.0959e-02  5.9549e-02  6.6534e-02  4.1576e-02  1.0062e+00  5.0148e-01  9.3375e+03  0:02:27  213

 absolute pressure limited to 5.000000e+10 in 114587 cells on zone 14422 

 turbulent viscosity limited to viscosity ratio of 1.000000e+05 in 82244 cells 
   288  1.4939e+07  3.6858e-02  5.4812e-02  5.4292e-02  4.2908e-02  1.0027e+00  4.9987e-01  2.0371e+04  0:02:24  212

 absolute pressure limited to 5.000000e+10 in 114641 cells on zone 14422 

 turbulent viscosity limited to viscosity ratio of 1.000000e+05 in 81175 cells 
   289  1.8087e+07  4.2770e-02  5.4384e-02  5.5620e-02  4.2229e-02  1.0276e+00  5.0456e-01  3.4870e+04  0:02:21  211

 absolute pressure limited to 5.000000e+10 in 114570 cells on zone 14422 

 turbulent viscosity limited to viscosity ratio of 1.000000e+05 in 80520 cells 
   290  2.1267e+07  3.5159e-02  4.6750e-02  5.6271e-02  3.9451e-02  1.0096e+00  5.0451e-01  2.8434e+04  0:02:22  210

 absolute pressure limited to 5.000000e+10 in 114567 cells on zone 14422 

 turbulent viscosity limited to viscosity ratio of 1.000000e+05 in 79766 cells 
   291  1.8664e+07  3.5897e-02  5.6077e-02  5.6141e-02  4.4600e-02  1.0009e+00  5.0033e-01  3.3829e+04  0:02:22  209

 absolute pressure limited to 5.000000e+10 in 114641 cells on zone 14422 

 turbulent viscosity limited to viscosity ratio of 1.000000e+05 in 78920 cells 
   292  2.1166e+07  4.4846e-02  7.3650e-02  6.3361e-02  3.9470e-02  1.0022e+00  5.0013e-01  3.9285e+04  0:02:23  208

 absolute pressure limited to 5.000000e+10 in 114554 cells on zone 14422 

 turbulent viscosity limited to viscosity ratio of 1.000000e+05 in 78835 cells 
   293  2.2414e+07  4.0980e-02  6.4239e-02  6.3323e-02  4.4800e-02  1.0172e+00  5.0410e-01  2.7325e+04  0:02:24  207

 absolute pressure limited to 5.000000e+10 in 114542 cells on zone 14422 

 turbulent viscosity limited to viscosity ratio of 1.000000e+05 in 79570 cells 
   294  1.9799e+07  3.4953e-02  5.3362e-02  5.5026e-02  4.7026e-02  1.0014e+00  5.0006e-01  3.2234e+04  0:02:24  206

 absolute pressure limited to 5.000000e+10 in 114592 cells on zone 14422 

 turbulent viscosity limited to viscosity ratio of 1.000000e+05 in 78756 cells 
   295  2.0418e+07  3.9666e-02  6.0145e-02  5.6749e-02  4.9084e-02  1.0044e+00  5.0121e-01  3.1610e+04  0:02:36  205

 absolute pressure limited to 5.000000e+10 in 114558 cells on zone 14422 

 turbulent viscosity limited to viscosity ratio of 1.000000e+05 in 79613 cells 
   296  2.2802e+07  3.8021e-02  6.2494e-02  5.8564e-02  4.4620e-02  1.0001e+00  5.0007e-01  2.5028e+04  0:02:34  204

 absolute pressure limited to 5.000000e+10 in 114505 cells on zone 14422 

 turbulent viscosity limited to viscosity ratio of 1.000000e+05 in 84128 cells 
   297  2.2075e+07  3.4556e-02  4.8132e-02  5.8331e-02  4.7452e-02  1.0014e+00  5.0033e-01  1.8055e+04  0:02:32  203

 absolute pressure limited to 5.000000e+10 in 114523 cells on zone 14422 

 turbulent viscosity limited to viscosity ratio of 1.000000e+05 in 86031 cells 

  iter  continuity  x-velocity  y-velocity  z-velocity      energy           k       omega  report-def     time/iter
   298  2.0755e+07  3.3583e-02  5.3138e-02  5.3680e-02  5.2420e-02  1.0016e+00  4.9998e-01  1.3845e+04  0:02:30  202

 absolute pressure limited to 5.000000e+10 in 114581 cells on zone 14422 

 turbulent viscosity limited to viscosity ratio of 1.000000e+05 in 86520 cells 
   299  2.3269e+07  3.8069e-02  6.3720e-02  5.7047e-02  4.8407e-02  1.0065e+00  5.0155e-01  8.2977e+03  0:02:28  201

 absolute pressure limited to 5.000000e+10 in 114535 cells on zone 14422 

 turbulent viscosity limited to viscosity ratio of 1.000000e+05 in 88702 cells 
   300  2.5943e+07  3.5567e-02  5.9693e-02  5.8588e-02  4.9812e-02  1.0009e+00  4.9966e-01  5.9967e+03  0:02:27  200

 absolute pressure limited to 5.000000e+10 in 114506 cells on zone 14422 

 turbulent viscosity limited to viscosity ratio of 1.000000e+05 in 88955 cells 
   301  2.4850e+07  3.2979e-02  5.1506e-02  5.6434e-02  5.1561e-02  1.0055e+00  5.0039e-01 -6.8906e+03  0:02:25  199

 absolute pressure limited to 5.000000e+10 in 114552 cells on zone 14422 

 turbulent viscosity limited to viscosity ratio of 1.000000e+05 in 90008 cells 
   302  2.5815e+07  3.6011e-02  5.6992e-02  5.3485e-02  5.1701e-02  1.0075e+00  5.0194e-01 -1.0730e+04  0:02:24  198

 absolute pressure limited to 5.000000e+10 in 114546 cells on zone 14422 

 turbulent viscosity limited to viscosity ratio of 1.000000e+05 in 91684 cells 
   303  2.8972e+07  3.3825e-02  6.4031e-02  5.7188e-02  5.1186e-02  1.0229e+00  5.0744e-01 -1.2838e+04  0:02:22  197

 absolute pressure limited to 5.000000e+10 in 114511 cells on zone 14422 

 turbulent viscosity limited to viscosity ratio of 1.000000e+05 in 96953 cells 
   304  2.8010e+07  3.1831e-02  5.9011e-02  5.6577e-02  4.9545e-02  1.0014e+00  5.0073e-01 -1.0184e+04  0:02:21  196

 absolute pressure limited to 5.000000e+10 in 114569 cells on zone 14422 

 turbulent viscosity limited to viscosity ratio of 1.000000e+05 in 98503 cells 
   305  2.8743e+07  3.2479e-02  5.9530e-02  5.5496e-02  5.3546e-02  1.0047e+00  5.0074e-01 -9.1110e+03  0:02:20  195

 absolute pressure limited to 5.000000e+10 in 114584 cells on zone 14422 

 turbulent viscosity limited to viscosity ratio of 1.000000e+05 in 100135 cells 
   306  3.1586e+07  3.4623e-02  6.2132e-02  5.5988e-02  5.3786e-02  1.0010e+00  5.0001e-01 -9.5262e+03  0:02:20  194

 absolute pressure limited to 5.000000e+10 in 114523 cells on zone 14422 

 turbulent viscosity limited to viscosity ratio of 1.000000e+05 in 100421 cells 
   307  3.3542e+07  3.0636e-02  5.6753e-02  5.7208e-02  5.0869e-02  1.0040e+00  5.0110e-01 -6.4728e+03  0:02:19  193

 absolute pressure limited to 5.000000e+10 in 114516 cells on zone 14422 

 turbulent viscosity limited to viscosity ratio of 1.000000e+05 in 101083 cells 
   308  3.1952e+07  2.7156e-02  5.4112e-02  5.6539e-02  5.2700e-02  1.0032e+00  5.0099e-01 -4.3306e+03  0:02:18  192

 absolute pressure limited to 5.000000e+10 in 114558 cells on zone 14422 

 turbulent viscosity limited to viscosity ratio of 1.000000e+05 in 101206 cells 

  iter  continuity  x-velocity  y-velocity  z-velocity      energy           k       omega  report-def     time/iter
   309  3.3225e+07  3.1571e-02  5.3817e-02  6.0499e-02  5.7226e-02  1.0089e+00  5.0193e-01 -1.6348e+03  0:02:16  191

 absolute pressure limited to 5.000000e+10 in 114537 cells on zone 14422 

 turbulent viscosity limited to viscosity ratio of 1.000000e+05 in 101304 cells 
   310  4.0140e+07  3.2922e-02  5.5366e-02  6.4339e-02  5.5660e-02  1.0004e+00  5.0023e-01 -1.9552e+03  0:02:16  190

 absolute pressure limited to 5.000000e+10 in 114499 cells on zone 14422 

 turbulent viscosity limited to viscosity ratio of 1.000000e+05 in 101424 cells 
   311  3.9197e+07  2.7140e-02  5.6695e-02  6.0646e-02  5.4907e-02  1.0021e+00  5.0061e-01  2.2609e+02  0:02:15  189

 absolute pressure limited to 5.000000e+10 in 114547 cells on zone 14422 

 turbulent viscosity limited to viscosity ratio of 1.000000e+05 in 101342 cells 
   312  3.6543e+07  2.7675e-02  5.8697e-02  5.5905e-02  5.9753e-02  1.0020e+00  5.0040e-01 -1.1381e+03  0:02:14  188

 absolute pressure limited to 5.000000e+10 in 114582 cells on zone 14422 

 turbulent viscosity limited to viscosity ratio of 1.000000e+05 in 101178 cells 
   313  3.7061e+07  3.2767e-02  6.3506e-02  5.3388e-02  5.9606e-02  1.0016e+00  5.0045e-01  1.0059e+03  0:02:14  187

 absolute pressure limited to 5.000000e+10 in 114543 cells on zone 14422 

 turbulent viscosity limited to viscosity ratio of 1.000000e+05 in 101617 cells 
   314  4.6695e+07  3.2654e-02  5.9422e-02  5.7125e-02  5.8039e-02  1.0008e+00  4.9995e-01 -5.6720e+02  0:02:14  186

 absolute pressure limited to 5.000000e+10 in 114491 cells on zone 14422 

 turbulent viscosity limited to viscosity ratio of 1.000000e+05 in 101374 cells 
   315  4.6447e+07  2.4480e-02  5.1608e-02  6.0767e-02  5.6666e-02  1.0030e+00  5.0060e-01  3.6312e+03  0:02:13  185

 absolute pressure limited to 5.000000e+10 in 114564 cells on zone 14422 

 turbulent viscosity limited to viscosity ratio of 1.000000e+05 in 101400 cells 
   316  4.3323e+07  2.5234e-02  5.5652e-02  5.4998e-02  6.1104e-02  1.0015e+00  4.9949e-01  4.8894e+02  0:02:12  184

 absolute pressure limited to 5.000000e+10 in 114553 cells on zone 14422 

 turbulent viscosity limited to viscosity ratio of 1.000000e+05 in 101355 cells 
   317  5.2351e+07  3.0061e-02  5.8821e-02  5.5439e-02  5.6990e-02  1.0078e+00  5.0185e-01  1.2947e+03  0:02:11  183

 absolute pressure limited to 5.000000e+10 in 114523 cells on zone 14422 

 turbulent viscosity limited to viscosity ratio of 1.000000e+05 in 101619 cells 
   318  5.8450e+07  2.7308e-02  5.7119e-02  5.9510e-02  5.6492e-02  1.0047e+00  5.0070e-01 -9.3831e+02  0:02:10  182

 absolute pressure limited to 5.000000e+10 in 114545 cells on zone 14422 

 turbulent viscosity limited to viscosity ratio of 1.000000e+05 in 101463 cells 
   319  5.5658e+07  2.3767e-02  5.2869e-02  6.0893e-02  5.7112e-02  1.0050e+00  4.9946e-01  2.8964e+02  0:02:10  181

 absolute pressure limited to 5.000000e+10 in 114554 cells on zone 14422 

 turbulent viscosity limited to viscosity ratio of 1.000000e+05 in 101386 cells 

  iter  continuity  x-velocity  y-velocity  z-velocity      energy           k       omega  report-def     time/iter
   320  6.0234e+07  2.5422e-02  5.9359e-02  5.4667e-02  5.4767e-02  1.0017e+00  5.0018e-01 -1.4959e+03  0:02:09  180

 absolute pressure limited to 5.000000e+10 in 114538 cells on zone 14422 

 turbulent viscosity limited to viscosity ratio of 1.000000e+05 in 101490 cells 
   321  6.7034e+07  2.5760e-02  5.7327e-02  5.8366e-02  5.4731e-02  1.0046e+00  5.0146e-01 -1.9522e+03  0:02:09  179

 absolute pressure limited to 5.000000e+10 in 114558 cells on zone 14422 

 turbulent viscosity limited to viscosity ratio of 1.000000e+05 in 101419 cells 
   322  6.9420e+07  2.5569e-02  5.5552e-02  5.5481e-02  5.4147e-02  1.0105e+00  5.0165e-01 -2.7107e+03  0:02:08  178

 absolute pressure limited to 5.000000e+10 in 114547 cells on zone 14422 

 turbulent viscosity limited to viscosity ratio of 1.000000e+05 in 101245 cells 
   323  7.2882e+07  2.3000e-02  5.2772e-02  5.9538e-02  7.6170e-02  1.0045e+00  5.0160e-01 -2.4322e+03  0:02:05  177

 absolute pressure limited to 5.000000e+10 in 114589 cells on zone 14422 

 turbulent viscosity limited to viscosity ratio of 1.000000e+05 in 101567 cells 
   324  1.0747e+08  2.5816e-02  5.9092e-02  4.2241e-02  6.3172e-02  1.0026e+00  5.0090e-01 -4.5168e+03  0:02:02  176

 absolute pressure limited to 5.000000e+10 in 114651 cells on zone 14422 

 turbulent viscosity limited to viscosity ratio of 1.000000e+05 in 101590 cells 
   325  1.4689e+08  2.2923e-02  5.8016e-02  4.6203e-02  5.2621e-02  9.9730e-01  4.9680e-01 -6.6987e+03  0:02:00  175

 absolute pressure limited to 5.000000e+10 in 114707 cells on zone 14422 

 turbulent viscosity limited to viscosity ratio of 1.000000e+05 in 101748 cells 
   326  1.9709e+08  2.2014e-02  5.9422e-02  4.5552e-02  4.5069e-02  9.9555e-01  4.9545e-01 -6.8201e+03  0:01:58  174

 absolute pressure limited to 5.000000e+10 in 114692 cells on zone 14422 

 turbulent viscosity limited to viscosity ratio of 1.000000e+05 in 101419 cells 
   327  2.2170e+08  2.0779e-02  5.6746e-02  4.6480e-02  4.1812e-02  9.8361e-01  4.8862e-01 -8.5642e+03  0:01:56  173

 absolute pressure limited to 5.000000e+10 in 114694 cells on zone 14422 

 turbulent viscosity limited to viscosity ratio of 1.000000e+05 in 101464 cells 
   328  2.3131e+08  1.9713e-02  5.0875e-02  4.7063e-02  3.8476e-02  9.6266e-01  4.7861e-01 -7.4669e+03  0:01:54  172

 absolute pressure limited to 5.000000e+10 in 114686 cells on zone 14422 

 turbulent viscosity limited to viscosity ratio of 1.000000e+05 in 101200 cells 
   329  2.4161e+08  1.8513e-02  4.7232e-02  4.5119e-02  3.5432e-02  9.5583e-01  4.7127e-01 -8.4978e+03  0:01:53  171

 absolute pressure limited to 5.000000e+10 in 114665 cells on zone 14422 

 turbulent viscosity limited to viscosity ratio of 1.000000e+05 in 101430 cells 
   330  2.2907e+08  1.6989e-02  4.6753e-02  4.3582e-02  3.5076e-02  9.9333e-01  4.9390e-01 -8.3252e+03  0:01:52  170

 absolute pressure limited to 5.000000e+10 in 114676 cells on zone 14422 

 turbulent viscosity limited to viscosity ratio of 1.000000e+05 in 101291 cells 

  iter  continuity  x-velocity  y-velocity  z-velocity      energy           k       omega  report-def     time/iter
   331  2.2922e+08  1.6751e-02  4.5769e-02  4.5809e-02  3.3653e-02  9.9081e-01  4.9326e-01 -9.4063e+03  0:01:52  169

 absolute pressure limited to 5.000000e+10 in 114674 cells on zone 14422 

 turbulent viscosity limited to viscosity ratio of 1.000000e+05 in 101633 cells 
   332  2.5433e+08  1.6243e-02  4.5714e-02  4.7412e-02  2.9604e-02  9.9675e-01  4.9632e-01 -9.2170e+03  0:01:51  168

 absolute pressure limited to 5.000000e+10 in 114678 cells on zone 14422 

 turbulent viscosity limited to viscosity ratio of 1.000000e+05 in 101352 cells 
   333  2.7740e+08  1.5393e-02  4.5452e-02  4.8900e-02  2.7431e-02  9.9531e-01  4.9545e-01 -1.1014e+04  0:01:51  167

 absolute pressure limited to 5.000000e+10 in 114685 cells on zone 14422 

 turbulent viscosity limited to viscosity ratio of 1.000000e+05 in 101820 cells 
   334  2.9292e+08  1.5421e-02  4.4883e-02  4.7225e-02  2.5343e-02  9.9440e-01  4.9499e-01 -1.0883e+04  0:01:50  166

 absolute pressure limited to 5.000000e+10 in 114684 cells on zone 14422 

 turbulent viscosity limited to viscosity ratio of 1.000000e+05 in 101644 cells 
   335  3.1063e+08  1.5461e-02  4.5177e-02  4.5354e-02  2.0719e-02  9.9330e-01  4.9448e-01 -1.2751e+04  0:01:49  165

 absolute pressure limited to 5.000000e+10 in 114664 cells on zone 14422 

 turbulent viscosity limited to viscosity ratio of 1.000000e+05 in 101948 cells 
   336  3.1026e+08  1.4521e-02  4.2477e-02  4.3713e-02  2.0314e-02  9.7311e-01  4.8815e-01 -1.2280e+04  0:01:48  164

 absolute pressure limited to 5.000000e+10 in 114665 cells on zone 14422 

 turbulent viscosity limited to viscosity ratio of 1.000000e+05 in 101832 cells 
   337  3.0401e+08  1.4511e-02  4.2563e-02  4.0985e-02  2.3217e-02  9.8967e-01  4.8911e-01 -1.4251e+04  0:01:47  163

 absolute pressure limited to 5.000000e+10 in 114682 cells on zone 14422 

 turbulent viscosity limited to viscosity ratio of 1.000000e+05 in 102203 cells 
   338  3.2713e+08  1.4253e-02  4.1543e-02  4.2375e-02  2.5990e-02  9.9857e-01  4.9849e-01 -1.2656e+04  0:01:46  162

 absolute pressure limited to 5.000000e+10 in 114668 cells on zone 14422 

 turbulent viscosity limited to viscosity ratio of 1.000000e+05 in 101989 cells 
   339  3.4836e+08  1.5460e-02  4.5316e-02  4.4686e-02  2.5783e-02  9.9452e-01  4.9707e-01 -1.4031e+04  0:01:46  161

 absolute pressure limited to 5.000000e+10 in 114672 cells on zone 14422 

 turbulent viscosity limited to viscosity ratio of 1.000000e+05 in 102377 cells 
   340  3.4728e+08  1.4739e-02  4.6041e-02  4.5282e-02  2.8353e-02  9.9875e-01  4.9871e-01 -1.3715e+04  0:01:48  160

 absolute pressure limited to 5.000000e+10 in 114673 cells on zone 14422 

 turbulent viscosity limited to viscosity ratio of 1.000000e+05 in 102171 cells 
   341  3.6844e+08  1.5047e-02  4.6059e-02  4.6005e-02  3.1744e-02  9.9579e-01  4.9733e-01 -1.4269e+04  0:01:47  159

 absolute pressure limited to 5.000000e+10 in 114671 cells on zone 14422 

 turbulent viscosity limited to viscosity ratio of 1.000000e+05 in 102402 cells 

  iter  continuity  x-velocity  y-velocity  z-velocity      energy           k       omega  report-def     time/iter
   342  3.8994e+08  1.5483e-02  4.7064e-02  4.3956e-02  2.8650e-02  9.9066e-01  4.9485e-01 -1.2770e+04  0:01:46  158

 absolute pressure limited to 5.000000e+10 in 114668 cells on zone 14422 

 turbulent viscosity limited to viscosity ratio of 1.000000e+05 in 102223 cells 
   343  3.9164e+08  1.4871e-02  4.4674e-02  4.2714e-02  2.7810e-02  9.9818e-01  4.9804e-01 -1.2974e+04  0:01:45  157

 absolute pressure limited to 5.000000e+10 in 114683 cells on zone 14422 

 turbulent viscosity limited to viscosity ratio of 1.000000e+05 in 102234 cells 
   344  4.1366e+08  1.4601e-02  4.4627e-02  3.8855e-02  3.2130e-02  9.9644e-01  4.9697e-01 -1.2238e+04  0:01:44  156

 absolute pressure limited to 5.000000e+10 in 114676 cells on zone 14422 

 turbulent viscosity limited to viscosity ratio of 1.000000e+05 in 102075 cells 
   345  4.3524e+08  1.4485e-02  4.4397e-02  3.8481e-02  3.0210e-02  9.9803e-01  4.9780e-01 -1.2241e+04  0:01:43  155

 absolute pressure limited to 5.000000e+10 in 114654 cells on zone 14422 

 turbulent viscosity limited to viscosity ratio of 1.000000e+05 in 102174 cells 
   346  4.2255e+08  1.4039e-02  4.4237e-02  3.7891e-02  3.1272e-02  9.9580e-01  4.9682e-01 -1.1709e+04  0:01:42  154

 absolute pressure limited to 5.000000e+10 in 114673 cells on zone 14422 

 turbulent viscosity limited to viscosity ratio of 1.000000e+05 in 102078 cells 
   347  4.2688e+08  1.4510e-02  4.3756e-02  3.6733e-02  2.9427e-02  9.9826e-01  4.9800e-01 -1.1046e+04  0:01:41  153

 absolute pressure limited to 5.000000e+10 in 114678 cells on zone 14422 

 turbulent viscosity limited to viscosity ratio of 1.000000e+05 in 102179 cells 
   348  4.4614e+08  1.3815e-02  4.2557e-02  3.8416e-02  3.0787e-02  9.9134e-01  4.9523e-01 -9.9684e+03  0:01:40  152

 absolute pressure limited to 5.000000e+10 in 114677 cells on zone 14422 

 turbulent viscosity limited to viscosity ratio of 1.000000e+05 in 101980 cells 
   349  4.6399e+08  1.3668e-02  4.1929e-02  3.9330e-02  3.0966e-02  9.9877e-01  4.9843e-01 -9.8787e+03  0:01:39  151

 absolute pressure limited to 5.000000e+10 in 114655 cells on zone 14422 

 turbulent viscosity limited to viscosity ratio of 1.000000e+05 in 102226 cells 
   350  4.6212e+08  1.3854e-02  4.1644e-02  3.7028e-02  2.9065e-02  9.9384e-01  4.9678e-01 -9.4690e+03  0:01:38  150

 absolute pressure limited to 5.000000e+10 in 114664 cells on zone 14422 

 turbulent viscosity limited to viscosity ratio of 1.000000e+05 in 102214 cells 
   351  4.5548e+08  1.4273e-02  4.1108e-02  3.6510e-02  3.0648e-02  9.7182e-01  4.9273e-01 -9.4940e+03  0:01:37  149

 absolute pressure limited to 5.000000e+10 in 114643 cells on zone 14422 

 turbulent viscosity limited to viscosity ratio of 1.000000e+05 in 102326 cells 
   352  4.7766e+08  1.3572e-02  4.0995e-02  3.5066e-02  3.4454e-02  9.9323e-01  4.9303e-01 -9.8273e+03  0:01:36  148

 absolute pressure limited to 5.000000e+10 in 114650 cells on zone 14422 

 turbulent viscosity limited to viscosity ratio of 1.000000e+05 in 102233 cells 

  iter  continuity  x-velocity  y-velocity  z-velocity      energy           k       omega  report-def     time/iter
   353  4.6290e+08  1.4665e-02  4.4261e-02  3.6563e-02  3.1594e-02  9.9795e-01  4.9763e-01 -1.0151e+04  0:01:35  147

 absolute pressure limited to 5.000000e+10 in 114668 cells on zone 14422 

 turbulent viscosity limited to viscosity ratio of 1.000000e+05 in 102415 cells 
   354  4.7146e+08  1.4908e-02  4.4470e-02  3.6984e-02  3.3227e-02  9.9304e-01  4.9502e-01 -9.7139e+03  0:01:34  146

 absolute pressure limited to 5.000000e+10 in 114663 cells on zone 14422 

 turbulent viscosity limited to viscosity ratio of 1.000000e+05 in 102554 cells 
   355  5.0546e+08  1.4768e-02  4.4610e-02  3.6791e-02  3.4055e-02  9.9383e-01  4.9458e-01 -1.0428e+04  0:01:33  145

 absolute pressure limited to 5.000000e+10 in 114663 cells on zone 14422 

 turbulent viscosity limited to viscosity ratio of 1.000000e+05 in 102632 cells 
   356  5.1173e+08  1.4303e-02  4.4011e-02  3.6566e-02  3.4248e-02  9.9817e-01  4.9792e-01 -1.0250e+04  0:01:33  144

 absolute pressure limited to 5.000000e+10 in 114654 cells on zone 14422 

 turbulent viscosity limited to viscosity ratio of 1.000000e+05 in 102491 cells 
   357  5.1379e+08  1.4890e-02  4.5215e-02  3.6057e-02  3.2145e-02  9.9709e-01  4.9752e-01 -1.0629e+04  0:01:32  143

 absolute pressure limited to 5.000000e+10 in 114666 cells on zone 14422 

 turbulent viscosity limited to viscosity ratio of 1.000000e+05 in 102561 cells 
   358  5.3960e+08  1.4514e-02  4.5023e-02  3.3042e-02  3.2372e-02  9.9812e-01  4.9802e-01 -1.0513e+04  0:01:31  142

 absolute pressure limited to 5.000000e+10 in 114652 cells on zone 14422 

 turbulent viscosity limited to viscosity ratio of 1.000000e+05 in 102437 cells 
   359  5.2323e+08  1.4128e-02  4.3026e-02  3.3200e-02  3.2804e-02  9.9533e-01  4.9660e-01 -1.0613e+04  0:01:31  141

 absolute pressure limited to 5.000000e+10 in 114642 cells on zone 14422 

 turbulent viscosity limited to viscosity ratio of 1.000000e+05 in 102748 cells 
   360  5.2618e+08  1.4060e-02  4.1969e-02  3.2733e-02  3.6472e-02  9.8471e-01  4.9328e-01 -1.0486e+04  0:01:30  140

 absolute pressure limited to 5.000000e+10 in 114661 cells on zone 14422 

 turbulent viscosity limited to viscosity ratio of 1.000000e+05 in 102996 cells 
   361  5.4697e+08  1.4878e-02  4.3934e-02  3.4482e-02  3.3789e-02  9.8701e-01  4.9024e-01 -1.0940e+04  0:01:30  139

 absolute pressure limited to 5.000000e+10 in 114631 cells on zone 14422 

 turbulent viscosity limited to viscosity ratio of 1.000000e+05 in 103134 cells 
   362  5.4326e+08  1.4435e-02  4.3171e-02  3.4837e-02  3.7588e-02  9.9277e-01  4.9258e-01 -1.1644e+04  0:01:29  138

 absolute pressure limited to 5.000000e+10 in 114658 cells on zone 14422 

 turbulent viscosity limited to viscosity ratio of 1.000000e+05 in 102958 cells 
   363  5.3416e+08  1.5097e-02  4.3727e-02  3.3952e-02  3.6528e-02  9.9672e-01  4.9588e-01 -1.3094e+04  0:01:29  137

 absolute pressure limited to 5.000000e+10 in 114654 cells on zone 14422 

 turbulent viscosity limited to viscosity ratio of 1.000000e+05 in 102812 cells 

  iter  continuity  x-velocity  y-velocity  z-velocity      energy           k       omega  report-def     time/iter
   364  5.5311e+08  1.4635e-02  4.2257e-02  3.2596e-02  3.3210e-02  9.9802e-01  4.9786e-01 -1.3911e+04  0:01:28  136

 absolute pressure limited to 5.000000e+10 in 114650 cells on zone 14422 

 turbulent viscosity limited to viscosity ratio of 1.000000e+05 in 102807 cells 
   365  5.5733e+08  1.4688e-02  4.2520e-02  3.2601e-02  3.3393e-02  9.9628e-01  4.9694e-01 -1.5228e+04  0:01:28  135

 absolute pressure limited to 5.000000e+10 in 114648 cells on zone 14422 

 turbulent viscosity limited to viscosity ratio of 1.000000e+05 in 102856 cells 
   366  5.2921e+08  1.4037e-02  4.0944e-02  3.1058e-02  3.4084e-02  9.9983e-01  4.9975e-01 -1.6208e+04  0:01:28  134

 absolute pressure limited to 5.000000e+10 in 114657 cells on zone 14422 

 turbulent viscosity limited to viscosity ratio of 1.000000e+05 in 103084 cells 
   367  5.3670e+08  1.4346e-02  3.8257e-02  3.0572e-02  3.6078e-02  9.9903e-01  4.9939e-01 -1.7633e+04  0:01:27  133

 absolute pressure limited to 5.000000e+10 in 114618 cells on zone 14422 

 turbulent viscosity limited to viscosity ratio of 1.000000e+05 in 102863 cells 
   368  5.1449e+08  1.3538e-02  3.8032e-02  3.1047e-02  3.5648e-02  9.9597e-01  4.9879e-01 -1.8192e+04  0:01:27  132

 absolute pressure limited to 5.000000e+10 in 114644 cells on zone 14422 

 turbulent viscosity limited to viscosity ratio of 1.000000e+05 in 103504 cells 
   369  5.1091e+08  1.4176e-02  3.9573e-02  3.4864e-02  3.4439e-02  9.9147e-01  4.9749e-01 -1.9199e+04  0:01:26  131

 absolute pressure limited to 5.000000e+10 in 114650 cells on zone 14422 

 turbulent viscosity limited to viscosity ratio of 1.000000e+05 in 103482 cells 
   370  5.5629e+08  1.4563e-02  3.9843e-02  3.4313e-02  4.3411e-02  9.7640e-01  4.9604e-01 -1.9864e+04  0:01:25  130

 absolute pressure limited to 5.000000e+10 in 114628 cells on zone 14422 

 turbulent viscosity limited to viscosity ratio of 1.000000e+05 in 103657 cells 
   371  5.3657e+08  1.5054e-02  4.4227e-02  3.4826e-02  4.8704e-02  9.9870e-01  4.9869e-01 -2.0979e+04  0:01:25  129

 absolute pressure limited to 5.000000e+10 in 114633 cells on zone 14422 

 turbulent viscosity limited to viscosity ratio of 1.000000e+05 in 105745 cells 
   372  5.3822e+08  1.6253e-02  4.6763e-02  3.4858e-02  4.6314e-02  9.9972e-01  4.9970e-01 -2.0941e+04  0:01:24  128
 temperature limited to 5.000000e+03 in 1 cells on zone 14422 in domain 1
 
 absolute pressure limited to 5.000000e+10 in 114640 cells on zone 14422 

 turbulent viscosity limited to viscosity ratio of 1.000000e+05 in 108077 cells 
   373  5.6619e+08  1.6292e-02  4.7842e-02  3.3786e-02  4.0643e-02  9.9852e-01  4.9930e-01 -2.1766e+04  0:01:23  127
 temperature limited to 5.000000e+03 in 27 cells on zone 14422 in domain 1
 
 absolute pressure limited to 5.000000e+10 in 114628 cells on zone 14422 

 turbulent viscosity limited to viscosity ratio of 1.000000e+05 in 108663 cells 
   374  5.4708e+08  1.5999e-02  4.7047e-02  3.3488e-02  4.7403e-02  9.9782e-01  4.9883e-01 -2.3116e+04  0:01:22  126
 temperature limited to 5.000000e+03 in 110 cells on zone 14422 in domain 1
 
 absolute pressure limited to 5.000000e+10 in 114634 cells on zone 14422 

 turbulent viscosity limited to viscosity ratio of 1.000000e+05 in 108616 cells 

  iter  continuity  x-velocity  y-velocity  z-velocity      energy           k       omega  report-def     time/iter
   375  5.5715e+08  1.7003e-02  4.8826e-02  3.2210e-02  4.9135e-02  9.9628e-01  4.9760e-01 -2.4460e+04  0:01:22  125
 temperature limited to 5.000000e+03 in 194 cells on zone 14422 in domain 1
 
 absolute pressure limited to 5.000000e+10 in 114624 cells on zone 14422 

 turbulent viscosity limited to viscosity ratio of 1.000000e+05 in 107696 cells 
   376  5.7894e+08  1.6659e-02  4.8428e-02  3.2305e-02  4.4498e-02  9.9671e-01  4.9703e-01 -2.4202e+04  0:01:21  124
 temperature limited to 5.000000e+03 in 230 cells on zone 14422 in domain 1
 
 absolute pressure limited to 5.000000e+10 in 114616 cells on zone 14422 

 turbulent viscosity limited to viscosity ratio of 1.000000e+05 in 108186 cells 
   377  5.5253e+08  1.5914e-02  4.6973e-02  3.3264e-02  4.4553e-02  9.9963e-01  4.9946e-01 -2.5056e+04  0:01:20  123
 temperature limited to 5.000000e+03 in 258 cells on zone 14422 in domain 1
 
 absolute pressure limited to 5.000000e+10 in 114615 cells on zone 14422 

 turbulent viscosity limited to viscosity ratio of 1.000000e+05 in 108176 cells 
   378  5.5586e+08  1.6205e-02  4.6793e-02  3.3242e-02  4.4066e-02  9.9835e-01  4.9907e-01 -2.6717e+04  0:01:19  122
 temperature limited to 5.000000e+03 in 104 cells on zone 14422 in domain 1
  temperature limited to 5.000000e+03 on 3 faces

 absolute pressure limited to 5.000000e+10 in 114623 cells on zone 14422 

 turbulent viscosity limited to viscosity ratio of 1.000000e+05 in 108169 cells 
   379  5.7809e+08  1.5797e-02  4.6227e-02  3.1623e-02  3.9844e-02  9.9450e-01  4.9766e-01 -2.6918e+04  0:01:18  121
 temperature limited to 5.000000e+03 in 5 cells on zone 14422 in domain 1
  temperature limited to 5.000000e+03 on 2 faces

 absolute pressure limited to 5.000000e+10 in 114639 cells on zone 14422 

 turbulent viscosity limited to viscosity ratio of 1.000000e+05 in 108354 cells 
   380  5.8473e+08  1.4960e-02  4.4342e-02  3.1213e-02  4.0862e-02  9.9885e-01  4.9859e-01 -2.8038e+04  0:01:18  120
 temperature limited to 5.000000e+03 in 122 cells on zone 14422 in domain 1
 
[...]
 
 absolute pressure limited to 5.000000e+10 in 114500 cells on zone 14422 

 turbulent viscosity limited to viscosity ratio of 1.000000e+05 in 107203 cells 
   446  1.7627e+09  1.4925e-02  4.5649e-02  2.9156e-02  4.1925e-02  9.9451e-01  4.9851e-01 -3.8340e+05  0:00:36   54
 temperature limited to 1.000000e+00 in 256 cells on zone 14422 in domain 1
 
 absolute pressure limited to 5.000000e+10 in 114501 cells on zone 14422 

 turbulent viscosity limited to viscosity ratio of 1.000000e+05 in 107166 cells 
   447  1.5988e+09  1.5003e-02  4.5105e-02  2.6053e-02  4.5723e-02  9.8627e-01  4.9730e-01 -3.5839e+05  0:00:35   53
 temperature limited to 1.000000e+00 in 264 cells on zone 14422 in domain 1
 
 absolute pressure limited to 5.000000e+10 in 114513 cells on zone 14422 

 turbulent viscosity limited to viscosity ratio of 1.000000e+05 in 107047 cells 
   448  1.6228e+09  1.5306e-02  4.5424e-02  2.6977e-02  4.5977e-02  9.8386e-01  4.9568e-01 -3.5730e+05  0:00:35   52
 temperature limited to 1.000000e+00 in 230 cells on zone 14422 in domain 1
 
 absolute pressure limited to 5.000000e+10 in 114508 cells on zone 14422 

 turbulent viscosity limited to viscosity ratio of 1.000000e+05 in 106990 cells 
   449  1.7198e+09  1.5255e-02  4.5828e-02  2.8936e-02  4.3610e-02  9.9829e-01  4.9771e-01 -3.3712e+05  0:00:34   51
 temperature limited to 1.000000e+00 in 259 cells on zone 14422 in domain 1
 
 absolute pressure limited to 5.000000e+10 in 114493 cells on zone 14422 

 turbulent viscosity limited to viscosity ratio of 1.000000e+05 in 107156 cells 
   450  1.7712e+09  1.4898e-02  4.5074e-02  2.9400e-02  4.7429e-02  9.9662e-01  4.9742e-01 -3.3447e+05  0:00:33   50
 temperature limited to 1.000000e+00 in 281 cells on zone 14422 in domain 1
 
 absolute pressure limited to 5.000000e+10 in 114530 cells on zone 14422 

 turbulent viscosity limited to viscosity ratio of 1.000000e+05 in 106885 cells 
   451  1.8399e+09  1.5246e-02  4.5646e-02  3.1430e-02  4.6845e-02  9.8845e-01  4.9448e-01 -3.4894e+05  0:00:32   49
 temperature limited to 1.000000e+00 in 427 cells on zone 14422 in domain 1
 
 absolute pressure limited to 5.000000e+10 in 114510 cells on zone 14422 

 turbulent viscosity limited to viscosity ratio of 1.000000e+05 in 106948 cells 

  iter  continuity  x-velocity  y-velocity  z-velocity      energy           k       omega  report-def     time/iter
   452  1.9391e+09  1.6018e-02  4.9546e-02  3.2062e-02  4.6218e-02  9.9938e-01  4.9916e-01 -3.2755e+05  0:00:31   48
 temperature limited to 1.000000e+00 in 469 cells on zone 14422 in domain 1
 
 absolute pressure limited to 5.000000e+10 in 114511 cells on zone 14422 

 turbulent viscosity limited to viscosity ratio of 1.000000e+05 in 107181 cells 
   453  2.0641e+09  1.5707e-02  4.9263e-02  3.0140e-02  4.3498e-02  9.9851e-01  4.9874e-01 -3.4144e+05  0:00:31   47
 temperature limited to 1.000000e+00 in 292 cells on zone 14422 in domain 1
 
 absolute pressure limited to 5.000000e+10 in 114502 cells on zone 14422 

 turbulent viscosity limited to viscosity ratio of 1.000000e+05 in 106825 cells 
   454  2.0736e+09  1.4517e-02  4.4949e-02  2.7267e-02  4.0673e-02  9.9553e-01  4.9719e-01 -3.3140e+05  0:00:30   46
 temperature limited to 1.000000e+00 in 508 cells on zone 14422 in domain 1
 
 absolute pressure limited to 5.000000e+10 in 114500 cells on zone 14422 

 turbulent viscosity limited to viscosity ratio of 1.000000e+05 in 106936 cells 
   455  2.0477e+09  1.3064e-02  3.9780e-02  2.9243e-02  4.1365e-02  9.8157e-01  4.9329e-01 -3.0215e+05  0:00:29   45
 temperature limited to 1.000000e+00 in 446 cells on zone 14422 in domain 1
 
 absolute pressure limited to 5.000000e+10 in 114493 cells on zone 14422 

 turbulent viscosity limited to viscosity ratio of 1.000000e+05 in 107255 cells 
   456  2.1500e+09  1.3415e-02  4.1111e-02  2.7690e-02  4.3362e-02  9.9863e-01  4.9844e-01 -2.8251e+05  0:00:28   44
 temperature limited to 1.000000e+00 in 399 cells on zone 14422 in domain 1
 
 absolute pressure limited to 5.000000e+10 in 114523 cells on zone 14422 

 turbulent viscosity limited to viscosity ratio of 1.000000e+05 in 107190 cells 
   457  2.3247e+09  1.4381e-02  4.4359e-02  2.8903e-02  4.3590e-02  9.9390e-01  4.9678e-01 -2.9054e+05  0:00:28   43
 temperature limited to 1.000000e+00 in 7 cells on zone 14422 in domain 1
 
 absolute pressure limited to 5.000000e+10 in 114517 cells on zone 14422 

 turbulent viscosity limited to viscosity ratio of 1.000000e+05 in 107233 cells 
   458  2.3522e+09  1.4125e-02  4.4293e-02  2.8505e-02  4.3682e-02  9.9127e-01  4.9413e-01 -2.6761e+05  0:00:27   42
 temperature limited to 1.000000e+00 in 100 cells on zone 14422 in domain 1
 
 absolute pressure limited to 5.000000e+10 in 114486 cells on zone 14422 

 turbulent viscosity limited to viscosity ratio of 1.000000e+05 in 107324 cells 
   459  2.3597e+09  1.4784e-02  4.6269e-02  2.8832e-02  4.2362e-02  9.9819e-01  4.9773e-01 -2.6105e+05  0:00:27   41
 temperature limited to 1.000000e+00 in 184 cells on zone 14422 in domain 1
 
 absolute pressure limited to 5.000000e+10 in 114482 cells on zone 14422 

 turbulent viscosity limited to viscosity ratio of 1.000000e+05 in 107513 cells 
   460  2.4755e+09  1.4768e-02  4.6503e-02  2.9597e-02  4.1117e-02  9.9761e-01  4.9755e-01 -2.6881e+05  0:00:26   40
 temperature limited to 1.000000e+00 in 397 cells on zone 14422 in domain 1
 
 absolute pressure limited to 5.000000e+10 in 114490 cells on zone 14422 

 turbulent viscosity limited to viscosity ratio of 1.000000e+05 in 107385 cells 
   461  2.5296e+09  1.4307e-02  4.5074e-02  2.9356e-02  4.1058e-02  9.9599e-01  4.9669e-01 -2.7869e+05  0:00:25   39
 temperature limited to 1.000000e+00 in 51 cells on zone 14422 in domain 1
 
 absolute pressure limited to 5.000000e+10 in 114500 cells on zone 14422 

 turbulent viscosity limited to viscosity ratio of 1.000000e+05 in 107248 cells 
   462  2.6548e+09  1.4365e-02  4.4929e-02  3.0593e-02  4.3693e-02  9.9661e-01  4.9694e-01 -2.8844e+05  0:00:24   38
 temperature limited to 1.000000e+00 in 276 cells on zone 14422 in domain 1
 
 absolute pressure limited to 5.000000e+10 in 114508 cells on zone 14422 

 turbulent viscosity limited to viscosity ratio of 1.000000e+05 in 107106 cells 

  iter  continuity  x-velocity  y-velocity  z-velocity      energy           k       omega  report-def     time/iter
   463  2.8326e+09  1.4152e-02  4.4940e-02  3.2262e-02  4.2867e-02  9.9895e-01  4.9862e-01 -2.8822e+05  0:00:24   37
 temperature limited to 1.000000e+00 in 117 cells on zone 14422 in domain 1
 
 absolute pressure limited to 5.000000e+10 in 114526 cells on zone 14422 

 turbulent viscosity limited to viscosity ratio of 1.000000e+05 in 107120 cells 
   464  3.0038e+09  1.4361e-02  4.6690e-02  3.2093e-02  4.0385e-02  9.9719e-01  4.9761e-01 -2.8680e+05  0:00:23   36
 temperature limited to 1.000000e+00 in 109 cells on zone 14422 in domain 1
 
 absolute pressure limited to 5.000000e+10 in 114502 cells on zone 14422 

 turbulent viscosity limited to viscosity ratio of 1.000000e+05 in 107221 cells 
   465  3.1518e+09  1.4079e-02  4.5557e-02  3.0692e-02  4.0624e-02  9.9321e-01  4.9582e-01 -2.8036e+05  0:00:22   35
 temperature limited to 1.000000e+00 in 191 cells on zone 14422 in domain 1
 
 absolute pressure limited to 5.000000e+10 in 114502 cells on zone 14422 

 turbulent viscosity limited to viscosity ratio of 1.000000e+05 in 107276 cells 
   466  3.3960e+09  1.4063e-02  4.5201e-02  3.1074e-02  4.0508e-02  9.9873e-01  4.9852e-01 -2.7223e+05  0:00:22   34
 temperature limited to 1.000000e+00 in 13 cells on zone 14422 in domain 1
 
 absolute pressure limited to 5.000000e+10 in 114532 cells on zone 14422 

 turbulent viscosity limited to viscosity ratio of 1.000000e+05 in 107367 cells 
   467  3.4927e+09  1.4090e-02  4.5930e-02  2.9323e-02  3.7707e-02  9.9449e-01  4.9663e-01 -2.6909e+05  0:00:21   33
 temperature limited to 1.000000e+00 in 42 cells on zone 14422 in domain 1
 
 absolute pressure limited to 5.000000e+10 in 114497 cells on zone 14422 

 turbulent viscosity limited to viscosity ratio of 1.000000e+05 in 107428 cells 
   468  3.5920e+09  1.3119e-02  4.2527e-02  3.0523e-02  3.7389e-02  9.8711e-01  4.9380e-01 -2.5921e+05  0:00:20   32
 temperature limited to 1.000000e+00 in 16 cells on zone 14422 in domain 1
 
 absolute pressure limited to 5.000000e+10 in 114495 cells on zone 14422 

 turbulent viscosity limited to viscosity ratio of 1.000000e+05 in 107159 cells 
   469  3.8286e+09  1.3321e-02  4.3012e-02  2.9796e-02  3.9988e-02  9.8922e-01  4.9146e-01 -2.4567e+05  0:00:20   31
 temperature limited to 1.000000e+00 in 30 cells on zone 14422 in domain 1
 
 absolute pressure limited to 5.000000e+10 in 114491 cells on zone 14422 

 turbulent viscosity limited to viscosity ratio of 1.000000e+05 in 107255 cells 
   470  3.6406e+09  1.3793e-02  4.4656e-02  2.9345e-02  3.6396e-02  9.9794e-01  4.9709e-01 -2.4744e+05  0:00:19   30
 temperature limited to 1.000000e+00 in 18 cells on zone 14422 in domain 1
 
 absolute pressure limited to 5.000000e+10 in 114517 cells on zone 14422 

 turbulent viscosity limited to viscosity ratio of 1.000000e+05 in 107391 cells 
   471  3.8307e+09  1.2981e-02  4.1938e-02  2.9201e-02  3.7938e-02  9.9410e-01  4.9490e-01 -2.3259e+05  0:00:19   29
 temperature limited to 1.000000e+00 in 44 cells on zone 14422 in domain 1
 
 absolute pressure limited to 5.000000e+10 in 114498 cells on zone 14422 

 turbulent viscosity limited to viscosity ratio of 1.000000e+05 in 107479 cells 
   472  4.2180e+09  1.2908e-02  4.1773e-02  3.0187e-02  3.5899e-02  9.9520e-01  4.9420e-01 -2.2627e+05  0:00:18   28
 temperature limited to 1.000000e+00 in 64 cells on zone 14422 in domain 1
 
 absolute pressure limited to 5.000000e+10 in 114481 cells on zone 14422 

 turbulent viscosity limited to viscosity ratio of 1.000000e+05 in 107521 cells 
   473  3.8163e+09  1.2527e-02  4.0529e-02  2.8730e-02  3.9114e-02  9.9767e-01  4.9656e-01 -2.1182e+05  0:00:17   27
 temperature limited to 1.000000e+00 in 102 cells on zone 14422 in domain 1
 
 absolute pressure limited to 5.000000e+10 in 114488 cells on zone 14422 

 turbulent viscosity limited to viscosity ratio of 1.000000e+05 in 107572 cells 

  iter  continuity  x-velocity  y-velocity  z-velocity      energy           k       omega  report-def     time/iter
   474  4.0794e+09  1.2775e-02  4.1428e-02  2.7400e-02  3.9076e-02  9.9782e-01  4.9753e-01 -2.0367e+05  0:00:17   26
 temperature limited to 1.000000e+00 in 170 cells on zone 14422 in domain 1
 
 absolute pressure limited to 5.000000e+10 in 114489 cells on zone 14422 

 turbulent viscosity limited to viscosity ratio of 1.000000e+05 in 107541 cells 
   475  4.7045e+09  1.2204e-02  3.9755e-02  3.0609e-02  3.4792e-02  9.9267e-01  4.9485e-01 -1.8954e+05  0:00:16   25
 temperature limited to 1.000000e+00 in 332 cells on zone 14422 in domain 1
 
 absolute pressure limited to 5.000000e+10 in 114485 cells on zone 14422 

 turbulent viscosity limited to viscosity ratio of 1.000000e+05 in 107646 cells 
   476  4.4354e+09  1.2266e-02  4.0873e-02  3.3103e-02  3.5058e-02  9.7424e-01  4.8715e-01 -1.8428e+05  0:00:15   24
 temperature limited to 1.000000e+00 in 75 cells on zone 14422 in domain 1
 
 absolute pressure limited to 5.000000e+10 in 114443 cells on zone 14422 

 turbulent viscosity limited to viscosity ratio of 1.000000e+05 in 107189 cells 
   477  4.4699e+09  1.2380e-02  4.0532e-02  2.8345e-02  3.3561e-02  9.7688e-01  4.8275e-01 -1.7542e+05  0:00:15   23
 temperature limited to 1.000000e+00 in 395 cells on zone 14422 in domain 1
 
 absolute pressure limited to 5.000000e+10 in 114519 cells on zone 14422 

 turbulent viscosity limited to viscosity ratio of 1.000000e+05 in 107247 cells 
   478  4.2916e+09  1.2321e-02  4.1441e-02  2.8192e-02  3.4871e-02  9.9980e-01  4.9978e-01 -1.6684e+05  0:00:14   22
 temperature limited to 1.000000e+00 in 134 cells on zone 14422 in domain 1
 
 absolute pressure limited to 5.000000e+10 in 114401 cells on zone 14422 

 turbulent viscosity limited to viscosity ratio of 1.000000e+05 in 106771 cells 
   479  4.5719e+09  1.2017e-02  3.9239e-02  2.4494e-02  3.3851e-02  9.9954e-01  4.9960e-01 -1.5926e+05  0:00:13   21
 temperature limited to 1.000000e+00 in 542 cells on zone 14422 in domain 1
 
 absolute pressure limited to 5.000000e+10 in 114496 cells on zone 14422 

 turbulent viscosity limited to viscosity ratio of 1.000000e+05 in 107039 cells 
   480  4.4813e+09  1.2869e-02  4.3311e-02  3.1458e-02  3.6404e-02  9.9788e-01  4.9921e-01 -1.5766e+05  0:00:13   20
 temperature limited to 1.000000e+00 in 552 cells on zone 14422 in domain 1
 
 absolute pressure limited to 5.000000e+10 in 114497 cells on zone 14422 

 turbulent viscosity limited to viscosity ratio of 1.000000e+05 in 106753 cells 
   481  4.8176e+09  1.4245e-02  4.7576e-02  2.4471e-02  2.8844e-02  9.9123e-01  4.9783e-01 -1.4833e+05  0:00:12   19
 temperature limited to 1.000000e+00 in 795 cells on zone 14422 in domain 1
 
 absolute pressure limited to 5.000000e+10 in 114388 cells on zone 14422 

 turbulent viscosity limited to viscosity ratio of 1.000000e+05 in 106645 cells 
   482  4.1225e+09  1.2857e-02  4.3510e-02  3.0720e-02  3.2547e-02  9.7436e-01  4.9604e-01 -1.5016e+05  0:00:11   18
 temperature limited to 1.000000e+00 in 1669 cells on zone 14422 in domain 1
 
 absolute pressure limited to 5.000000e+10 in 114451 cells on zone 14422 

 turbulent viscosity limited to viscosity ratio of 1.000000e+05 in 106138 cells 
   483  4.0021e+09  1.3520e-02  4.4550e-02  3.0615e-02  2.8944e-02  9.8566e-01  4.9659e-01 -1.4128e+05  0:00:11   17
 temperature limited to 1.000000e+00 in 2882 cells on zone 14422 in domain 1
 
 absolute pressure limited to 5.000000e+10 in 114410 cells on zone 14422 

 turbulent viscosity limited to viscosity ratio of 1.000000e+05 in 106438 cells 
   484  4.0109e+09  1.1451e-02  3.7469e-02  3.8595e-02  3.6139e-02  9.9776e-01  4.9694e-01 -1.4604e+05  0:00:10   16
 temperature limited to 1.000000e+00 in 2183 cells on zone 14422 in domain 1
 
 absolute pressure limited to 5.000000e+10 in 114452 cells on zone 14422 

 turbulent viscosity limited to viscosity ratio of 1.000000e+05 in 106302 cells 

  iter  continuity  x-velocity  y-velocity  z-velocity      energy           k       omega  report-def     time/iter
   485  4.7400e+09  1.2646e-02  4.0395e-02  2.7760e-02  2.9894e-02  9.9677e-01  4.9080e-01 -1.4228e+05  0:00:09   15
 temperature limited to 1.000000e+00 in 3811 cells on zone 14422 in domain 1
 
 absolute pressure limited to 5.000000e+10 in 114435 cells on zone 14422 

 turbulent viscosity limited to viscosity ratio of 1.000000e+05 in 106083 cells 
   486  4.6575e+09  1.3425e-02  4.5144e-02  3.5171e-02  2.9987e-02  9.8989e-01  4.8483e-01 -1.5062e+05  0:00:09   14
 temperature limited to 1.000000e+00 in 4951 cells on zone 14422 in domain 1
 
 absolute pressure limited to 5.000000e+10 in 114450 cells on zone 14422 

 turbulent viscosity limited to viscosity ratio of 1.000000e+05 in 105873 cells 
   487  4.5061e+09  1.3503e-02  4.4871e-02  3.3208e-02  2.6599e-02  9.9773e-01  4.9479e-01 -1.4652e+05  0:00:08   13
 temperature limited to 1.000000e+00 in 4667 cells on zone 14422 in domain 1
 
 absolute pressure limited to 5.000000e+10 in 114372 cells on zone 14422 

 turbulent viscosity limited to viscosity ratio of 1.000000e+05 in 105888 cells 
   488  4.6265e+09  1.2729e-02  4.2021e-02  3.2184e-02  3.0198e-02  9.9630e-01  4.9556e-01 -1.4850e+05  0:00:08   12
 temperature limited to 1.000000e+00 in 5748 cells on zone 14422 in domain 1
 
 absolute pressure limited to 5.000000e+10 in 114477 cells on zone 14422 

 turbulent viscosity limited to viscosity ratio of 1.000000e+05 in 105771 cells 
   489  5.2002e+09  1.3452e-02  4.4421e-02  3.2540e-02  2.6148e-02  9.9730e-01  4.9436e-01 -1.4701e+05  0:00:07   11
 temperature limited to 1.000000e+00 in 6278 cells on zone 14422 in domain 1
 
 absolute pressure limited to 5.000000e+10 in 114391 cells on zone 14422 

 turbulent viscosity limited to viscosity ratio of 1.000000e+05 in 105791 cells 
   490  4.9333e+09  1.3886e-02  4.6807e-02  3.1156e-02  2.8461e-02  9.9311e-01  4.9127e-01 -1.4469e+05  0:00:06   10
 temperature limited to 1.000000e+00 in 7204 cells on zone 14422 in domain 1
 
 absolute pressure limited to 5.000000e+10 in 114392 cells on zone 14422 

 turbulent viscosity limited to viscosity ratio of 1.000000e+05 in 105862 cells 
   491  5.1484e+09  1.4356e-02  4.8194e-02  2.9728e-02  3.1001e-02  9.9977e-01  4.9950e-01 -1.4500e+05  0:00:06    9
 temperature limited to 1.000000e+00 in 9778 cells on zone 14422 in domain 1
 
 absolute pressure limited to 5.000000e+10 in 114442 cells on zone 14422 

 turbulent viscosity limited to viscosity ratio of 1.000000e+05 in 105906 cells 
   492  6.3035e+09  1.4643e-02  4.9564e-02  2.7222e-02  2.7307e-02  9.9875e-01  4.9853e-01 -1.4536e+05  0:00:05    8
 temperature limited to 1.000000e+00 in 8938 cells on zone 14422 in domain 1
 
 absolute pressure limited to 5.000000e+10 in 114418 cells on zone 14422 

 turbulent viscosity limited to viscosity ratio of 1.000000e+05 in 105847 cells 
   493  5.8271e+09  1.5091e-02  5.2136e-02  3.1818e-02  2.5639e-02  9.9962e-01  4.9809e-01 -1.4475e+05  0:00:04    7
 temperature limited to 1.000000e+00 in 10166 cells on zone 14422 in domain 1
 
 absolute pressure limited to 5.000000e+10 in 114453 cells on zone 14422 

 turbulent viscosity limited to viscosity ratio of 1.000000e+05 in 106348 cells 
   494  5.7037e+09  1.4504e-02  4.9686e-02  2.7883e-02  2.9633e-02  1.0000e+00  4.9932e-01 -1.4422e+05  0:00:04    6
 temperature limited to 1.000000e+00 in 2789 cells on zone 14422 in domain 1
 
 absolute pressure limited to 5.000000e+10 in 114486 cells on zone 14422 

 turbulent viscosity limited to viscosity ratio of 1.000000e+05 in 106359 cells 
   495  7.1517e+09  1.5136e-02  5.0218e-02  2.7218e-02  2.8066e-02  1.0006e+00  4.9924e-01 -1.2728e+05  0:00:03    5
 temperature limited to 1.000000e+00 in 3332 cells on zone 14422 in domain 1
 
 absolute pressure limited to 5.000000e+10 in 114511 cells on zone 14422 

 turbulent viscosity limited to viscosity ratio of 1.000000e+05 in 106377 cells 

  iter  continuity  x-velocity  y-velocity  z-velocity      energy           k       omega  report-def     time/iter
   496  7.5336e+09  1.3971e-02  4.8321e-02  3.6935e-02  2.6255e-02  9.9946e-01  4.9901e-01 -1.3099e+05  0:00:03    4
 temperature limited to 1.000000e+00 in 8739 cells on zone 14422 in domain 1
 
 absolute pressure limited to 5.000000e+10 in 114472 cells on zone 14422 

 turbulent viscosity limited to viscosity ratio of 1.000000e+05 in 106414 cells 
   497  7.2574e+09  1.4061e-02  4.8949e-02  3.3502e-02  2.5682e-02  9.9811e-01  4.9875e-01 -1.2955e+05  0:00:02    3
 temperature limited to 1.000000e+00 in 6643 cells on zone 14422 in domain 1
 
 absolute pressure limited to 5.000000e+10 in 114430 cells on zone 14422 

 turbulent viscosity limited to viscosity ratio of 1.000000e+05 in 106454 cells 
   498  7.8876e+09  1.3791e-02  4.7959e-02  3.2736e-02  2.4100e-02  9.9068e-01  4.9676e-01 -1.3366e+05  0:00:01    2
 temperature limited to 1.000000e+00 in 8581 cells on zone 14422 in domain 1
 
 absolute pressure limited to 5.000000e+10 in 114482 cells on zone 14422 

 turbulent viscosity limited to viscosity ratio of 1.000000e+05 in 106420 cells 
   499  8.8100e+09  1.3093e-02  4.5161e-02  2.8184e-02  2.1332e-02  9.9575e-01  4.9485e-01 -1.3131e+05  0:00:01    1
 temperature limited to 1.000000e+00 in 8878 cells on zone 14422 in domain 1
 
 absolute pressure limited to 5.000000e+10 in 114404 cells on zone 14422 

 turbulent viscosity limited to viscosity ratio of 1.000000e+05 in 106280 cells 
   500  7.4990e+09  1.2772e-02  4.4704e-02  2.9727e-02  2.3708e-02  9.8779e-01  4.9191e-01 -1.3360e+05  0:00:00    0

> Halting due to end of file on input.
Auto-Transcript Stop Time:  12:09:27, 06 Nov 2024 
Total Transcript Time: 5 Minute 53 Second.

Automatic transcript closed.
