/opt/crc/a/ansys/2024R1/v241/fluent/fluent24.1.0/bin/fluent -r24.1.0 3ddp -t4 -g
/opt/crc/a/ansys/2024R1/v241/fluent/fluent24.1.0/cortex/lnamd64/cortex.24.1.0 -f fluent -g (fluent "3ddp -pshmem  -host -r24.1.0 -t4 -mpi=intel -path/opt/crc/a/ansys/2024R1/v241/fluent -ssh")

Opening input/output transcript to file "/tmp/1007968.1.long/worker-241760-67326/task.25/fluent-20241130-065230-72383.trn".
Auto-Transcript Start Time:  06:52:30, 30 Nov 2024 
/opt/crc/a/ansys/2024R1/v241/fluent/fluent24.1.0/bin/fluent -r24.1.0 3ddp -pshmem -host -t4 -mpi=intel -path/opt/crc/a/ansys/2024R1/v241/fluent -ssh -cx d32cepyc205.crc.nd.edu:41017:46089
Starting /opt/crc/a/ansys/2024R1/v241/fluent/fluent24.1.0/lnamd64/3ddp_host/fluent.24.1.0 host -cx d32cepyc205.crc.nd.edu:41017:46089 "(list (rpsetvar (QUOTE parallel/function) "fluent 3ddp -flux -node -r24.1.0 -t4 -pshmem -mpi=intel -ssh") (rpsetvar (QUOTE parallel/rhost) "") (rpsetvar (QUOTE parallel/ruser) "") (rpsetvar (QUOTE parallel/nprocs_string) "4") (rpsetvar (QUOTE parallel/auto-spawn?) #t) (rpsetvar (QUOTE parallel/trace-level) 0) (rpsetvar (QUOTE parallel/remote-shell) 1) (rpsetvar (QUOTE parallel/path) "/opt/crc/a/ansys/2024R1/v241/fluent") (rpsetvar (QUOTE parallel/hostsfile) "") (rpsetvar (QUOTE gpuapp/devices) ""))"

              Welcome to ANSYS Fluent 2024 R1

              Copyright 1987-2024 ANSYS, Inc. All Rights Reserved.
              Unauthorized use, distribution or duplication is prohibited.
              This product is subject to U.S. laws governing export and re-export.
              For full Legal Notice, see documentation.

Build Time: Nov 22 2023 10:07:25 EST  Build Id: 10184  
 
Connected License Server List:	7504@linux5-lic.crc.nd.edu

     --------------------------------------------------------------
     This is an academic version of ANSYS FLUENT. Usage of this product
     license is limited to the terms and conditions specified in your ANSYS
     license form, additional terms section.
     --------------------------------------------------------------
Host spawning Node 0 on machine "d32cepyc205.crc.nd.edu" (unix).
/opt/crc/a/ansys/2024R1/v241/fluent/fluent24.1.0/bin/fluent -r24.1.0 3ddp -flux -node -t4 -pshmem -mpi=intel -ssh -mport 10.32.91.177:10.32.91.177:46245:0
Starting /opt/crc/a/ansys/2024R1/v241/fluent/fluent24.1.0/multiport/mpi/lnamd64/intel2021/bin/mpirun --rsh=ssh -f /tmp/fluent-appfile.etracey.75051 -genv I_MPI_FABRICS shm -genv FLUENT_ARCH lnamd64 -genv I_MPI_DEBUG 0 -genv I_MPI_ADJUST_GATHERV 3 -genv I_MPI_ADJUST_ALLREDUCE 2 -genv I_MPI_PLATFORM auto -genv PYTHONHOME /opt/crc/a/ansys/2024R1/v241/fluent/fluent24.1.0/../../commonfiles/CPython/3_10/linx64/Release/python -genv FLUENT_PROD_DIR /opt/crc/a/ansys/2024R1/v241/fluent/fluent24.1.0 -genv FLUENT_AFFINITY 0 -genv I_MPI_PIN enable -genv KMP_AFFINITY disabled -n 4 /opt/crc/a/ansys/2024R1/v241/fluent/fluent24.1.0/lnamd64/3ddp_node/fluent_mpi.24.1.0 node -mpiw intel -pic shmem -mport 10.32.91.177:10.32.91.177:46245:0

--------------------------------------------------------------------------------
ID    Hostname              Core  O.S.      PID          Vendor                
--------------------------------------------------------------------------------
n0-3  d32cepyc205.crc.nd.e  4/64  Linux-64  75139-75142  AMD EPYC 7543 32-Core 
host  d32cepyc205.crc.nd.e        Linux-64  73792        AMD EPYC 7543 32-Core 

MPI Option Selected: intel
Selected system interconnect: shared-memory
--------------------------------------------------------------------------------


Initializing SGE
Done.
Cleanup script file is /tmp/1007968.1.long/worker-241760-67326/task.25/cleanup-fluent-d32cepyc205.crc.nd.edu-73792.sh
Key Behavioral Changes:
Fluent Guided Meshing Workflows: 
Workflow template files (.wft) are now saved by default whenever the mesh is saved. You can change the automatic creation of .wft files in Preferences. 
Journaling: 
When Ansys Fluent encounters an invalid input in a journal file that is being replayed, it now raises an error condition and aborts the journal processing. 
Turbulence: 
The value of kappa used in the Spalart-Allmaras model for interior terms was inconsistent with the reference publications of the model. Fluent historically used a value of 0.4187, but to produce results consistent with the published model, the value should be 0.41. This issue was first addressed in a previous Fluent version and access to the kappa value was given in the GUI while keeping the old default of 0.4187. In Fluent 2024 R1, the default value is now changed to 0.41. 
Turbomachinery: 
For Blade Film Cooling, you can now specify stationary holes on the surfaces of a moving/rotating cell zone in transient cases. 
Boundaries previously referred to as "casings" in the Turbo Topology definition are now referred to as "shrouds." 
Density-Based Solver: 
The High Speed Numerics have been updated to increase the robustness of the Roe-FDS numerical flux against shock-instabilities and the carbuncle phenomenon. This modification may produce a slight solution change for cases combining Roe-FDS and HSN. 
Multiphase Models: 
Modeling of open channel flows in conjunction with the translation moving reference frame (MRF) has been improved resulting in more accurate and stable solution. In addition, a solution methodology has been suggested to provide better stability for high-speed hull simulations. 
Parallel Processing: 
Using dynamic process spawning now requires that you manually specify the interconnect as -pethernet for shared memory or distributed memory without InfiniBand, and -pib.ofed for distributed memory over InfiniBand. 
Refer to the Ansys, Inc. Release Notes for a full listing of the new features included in Ansys Fluent 2024 R1. 
> Fast-loading "/opt/crc/a/ansys/2024R1/v241/fluent/fluent24.1.0/addons/afd/lib/hdfio.bin"
Done.
WARNING: Rank:0 Machine d32cepyc205.crc.nd.edu has 51 % of RAM filled with file buffer caches.
This can cause potential performance issues. Please use -cflush flag to flush the cache. 


Reading from d32cepyc205.crc.nd.edu:"/tmp/1007968.1.long/worker-241760-67326/task.25/case.cas.h5" in NODE0 mode ...
  Reading mesh ...
      263237 cells,     1 cell zone  ...
         263237 polyhedra cells,  zone id: 900
     1517660 faces,     5 face zones ...
            514 polygonal pressure-far-field faces,  zone id: 17
            512 polygonal pressure-far-field faces,  zone id: 18
           4017 polygonal pressure-far-field faces,  zone id: 19
          30625 polygonal wall faces,  zone id: 20
        1481992 polygonal interior faces,  zone id: 899
     1099102 nodes,     1 node zone  ...
  Done.


Building...
     mesh
	auto partitioning mesh by Metis (fast),
	distributing mesh
		parts....,
		faces....,
		nodes....,
		cells....,
        bandwidth reduction using Reverse Cuthill-McKee: 67505/4420 = 15.2726
  Reading boundary layer flags ...
  Done.

     materials,
     interface,
     domains,
	mixture
     zones,
	inlet
	outlet
	farfield
	launchvehicle
	interior--solid
	solid
     parallel,
Done.
Warning: Pressure far-field boundary condition can only be used with ideal gas law.
  Please change either the boundary condition type or enable ideal gas law.
  Solver cannot proceed until this is fixed.
	Warning: Pressure far-field boundary condition can only be used with ideal gas law.
  Please change either the boundary condition type or enable ideal gas law.
  Solver cannot proceed until this is fixed.
	
> adjoint/                parallel/               server/
define/                 parametric-study/       solve/
display/                plot/                   surface/
exit                    preferences/            turbo-workflow/
file/                   print-license-usage     views/
mesh/                   report/

> air is a fluid

Density
no data required.


Note: Enabling energy equation as required by material density method.

> adjoint/                parallel/               server/
define/                 parametric-study/       solve/
display/                plot/                   surface/
exit                    preferences/            turbo-workflow/
file/                   print-license-usage     views/
mesh/                   report/

> 
> adjoint/                parallel/               server/
define/                 parametric-study/       solve/
display/                plot/                   surface/
exit                    preferences/            turbo-workflow/
file/                   print-license-usage     views/
mesh/                   report/

> 
> adjoint/                parallel/               server/
define/                 parametric-study/       solve/
display/                plot/                   surface/
exit                    preferences/            turbo-workflow/
file/                   print-license-usage     views/
mesh/                   report/

> (farfield outlet inlet)

> (farfield outlet inlet)

> (farfield outlet inlet)

> adjoint/                parallel/               server/
define/                 parametric-study/       solve/
display/                plot/                   surface/
exit                    preferences/            turbo-workflow/
file/                   print-license-usage     views/
mesh/                   report/

> (launchvehicle)

> adjoint/                parallel/               server/
define/                 parametric-study/       solve/
display/                plot/                   surface/
exit                    preferences/            turbo-workflow/
file/                   print-license-usage     views/
mesh/                   report/

> 
> 
> 
> 
> 
> 
> adjoint/                parallel/               server/
define/                 parametric-study/       solve/
display/                plot/                   surface/
exit                    preferences/            turbo-workflow/
file/                   print-license-usage     views/
mesh/                   report/

> 
> 
> 
> adjoint/                parallel/               server/
define/                 parametric-study/       solve/
display/                plot/                   surface/
exit                    preferences/            turbo-workflow/
file/                   print-license-usage     views/
mesh/                   report/

> 
> 
> 
> adjoint/                parallel/               server/
define/                 parametric-study/       solve/
display/                plot/                   surface/
exit                    preferences/            turbo-workflow/
file/                   print-license-usage     views/
mesh/                   report/

> 
> adjoint/                parallel/               server/
define/                 parametric-study/       solve/
display/                plot/                   surface/
exit                    preferences/            turbo-workflow/
file/                   print-license-usage     views/
mesh/                   report/

> 
Initialize using the hybrid initialization method.

Checking case topology... 
-This case has multiple farfield bc 
-Case will be initialized with constant parameters

	iter		scalar-0

	1		1.000000e+00
	2		6.087064e-04
	3		9.861689e-05
	4		1.733727e-05
	5		3.663412e-06
	6		8.624388e-07
	7		2.373457e-07
	8		9.641739e-08
	9		4.657723e-08
	10		2.737151e-08

Hybrid initialization is done.

Note: Settings to improve the robustness of pathline and
      particle tracking have been automatically enabled.


> 
  iter  continuity  x-velocity  y-velocity  z-velocity      energy           k       omega     time/iter
     1  1.0000e+00  4.0965e-05  7.1951e-05  7.6235e-05  6.4062e-07  8.2304e-01  4.4769e-01  4:04:21  499
     2  8.4800e-01  2.8263e-05  5.1277e-05  4.4604e-05  5.4322e-07  7.2514e-01  4.1947e-01  4:02:12  498
     3  8.6707e-01  2.4039e-05  4.5322e-05  3.3480e-05  4.5365e-07  5.6320e-01  3.7844e-01  4:00:30  497
     4  1.0000e+00  2.1097e-05  5.9089e-05  2.4123e-05  5.4505e-07  3.5301e-01  3.2160e-01  3:58:34  496
     5  1.0000e+00  3.1252e-05  9.8056e-05  2.8623e-05  7.9975e-07  1.4884e-01  2.5374e-01  3:56:59  495
     6  2.0416e+00  4.9189e-05  1.9293e-04  3.7317e-05  1.5500e-06  6.0484e-02  1.8204e-01  4:00:18  494
     7  4.1679e+00  8.3113e-05  4.0271e-04  5.8304e-05  3.4608e-06  4.8377e-02  1.1938e-01  4:02:33  493
     8  8.8080e+00  1.5426e-04  8.2523e-04  1.1774e-04  8.9553e-06  4.5723e-02  7.7147e-02  4:01:58  492
     9  1.6900e+01  3.0080e-04  1.9434e-03  2.1401e-04  1.9213e-05  1.8288e-01  1.1427e-01  4:04:09  491
    10  3.2686e+01  7.6243e-04  4.0416e-03  8.0051e-04  9.1119e-05  2.7849e-01  1.6068e-01  4:00:06  490
    11  4.6949e+01  2.1133e-03  5.9798e-03  1.1593e-03  8.5221e-05  2.5490e-01  1.5028e-01  3:58:12  489

  iter  continuity  x-velocity  y-velocity  z-velocity      energy           k       omega     time/iter
    12  5.1032e+01  2.1122e-03  5.2102e-03  8.6988e-04  2.4918e-04  2.6230e-01  1.4505e-01  3:56:18  488
    13  7.5137e+01  6.0452e-03  1.0242e-02  1.8218e-03  2.2724e-04  3.0767e-01  1.9876e-01  3:55:02  487
    14  8.1756e+01  5.1431e-03  9.1275e-03  1.7893e-03  2.3560e-04  3.0412e-01  1.8230e-01  3:54:11  486
    15  7.6585e+01  7.1781e-03  1.0909e-02  1.7280e-03  3.3649e-04  3.1862e-01  2.0594e-01  3:51:05  485
    16  1.1335e+02  8.4029e-03  1.5321e-02  2.7852e-03  4.3865e-04  3.7615e-01  2.4678e-01  3:48:18  484
    17  1.0195e+02  9.1379e-03  1.7264e-02  2.2878e-03  4.4846e-04  4.0167e-01  2.6869e-01  3:45:26  483
    18  1.3559e+02  1.0980e-02  2.0279e-02  3.5911e-03  6.4429e-04  4.1321e-01  2.6500e-01  3:44:12  482
    19  1.2274e+02  1.4693e-02  2.1544e-02  3.1109e-03  7.2463e-04  4.4172e-01  3.0894e-01  3:47:48  481
    20  1.6269e+02  1.4161e-02  2.8119e-02  3.9804e-03  8.7412e-04  5.2420e-01  3.3759e-01  3:47:08  480
    21  1.5348e+02  1.9737e-02  2.7084e-02  4.1143e-03  1.3955e-03  5.2585e-01  3.6174e-01  3:43:01  479
    22  1.9621e+02  2.1654e-02  4.3197e-02  6.1420e-03  1.4054e-03  5.2684e-01  3.5283e-01  3:38:16  478

  iter  continuity  x-velocity  y-velocity  z-velocity      energy           k       omega     time/iter
    23  1.8545e+02  2.3919e-02  4.1671e-02  5.9520e-03  2.2833e-03  6.6903e-01  4.8072e-01  3:37:27  477
    24  2.3460e+02  2.8010e-02  5.7915e-02  8.0638e-03  2.4039e-03  7.5925e-01  4.3957e-01  3:38:27  476
    25  2.0859e+02  3.0073e-02  5.3463e-02  9.0823e-03  2.4695e-03  5.8903e-01  4.1940e-01  3:39:27  475
    26  2.5704e+02  4.2109e-02  6.5922e-02  1.1467e-02  2.0457e-03  5.0946e-01  3.7024e-01  3:38:05  474
    27  2.4812e+02  3.5424e-02  5.6414e-02  1.1500e-02  2.5998e-03  5.9175e-01  4.1713e-01  3:37:42  473
    28  2.5486e+02  4.6650e-02  6.2807e-02  1.3897e-02  2.2489e-03  6.0708e-01  3.8480e-01  3:38:23  472
    29  2.6384e+02  4.8886e-02  6.1422e-02  1.3493e-02  3.4564e-03  5.7037e-01  4.0684e-01  3:38:34  471
    30  2.5046e+02  5.8186e-02  6.9833e-02  1.5641e-02  2.6694e-03  5.9923e-01  4.0838e-01  3:38:52  470
    31  2.7844e+02  5.3866e-02  7.8716e-02  1.6713e-02  3.2415e-03  6.4741e-01  4.5495e-01  3:38:04  469
    32  2.7954e+02  6.0811e-02  7.6584e-02  1.7012e-02  5.5617e-03  6.9926e-01  4.4455e-01  3:37:50  468
    33  3.0292e+02  7.1742e-02  7.3110e-02  1.7852e-02  6.0619e-03  6.0601e-01  4.1301e-01  3:35:21  467

  iter  continuity  x-velocity  y-velocity  z-velocity      energy           k       omega     time/iter
    34  2.9779e+02  7.0090e-02  8.7815e-02  2.0107e-02  3.9706e-03  6.2990e-01  4.7017e-01  3:36:42  466
    35  3.1788e+02  6.0024e-02  9.0623e-02  2.0050e-02  5.6309e-03  7.2531e-01  4.4238e-01  3:37:22  465
    36  2.9784e+02  7.8434e-02  7.1384e-02  2.0958e-02  3.9983e-03  6.5078e-01  4.3863e-01  3:37:22  464
    37  3.5251e+02  6.9538e-02  8.8178e-02  2.2643e-02  8.6822e-03  6.0445e-01  4.3177e-01  3:38:10  463
    38  3.4848e+02  9.1296e-02  8.1046e-02  2.1341e-02  4.4357e-03  7.1592e-01  4.9609e-01  3:35:41  462
    39  3.5234e+02  7.2604e-02  8.7051e-02  2.1833e-02  6.7116e-03  9.2966e-01  6.2542e-01  3:35:32  461
    40  3.7637e+02  8.3952e-02  8.0362e-02  2.1878e-02  7.6324e-03  7.5385e-01  4.5460e-01  3:36:46  460
    41  3.8802e+02  7.6808e-02  7.5569e-02  2.0850e-02  5.3005e-03  6.6758e-01  4.6887e-01  3:35:50  459
    42  3.8727e+02  6.0706e-02  9.9107e-02  2.1874e-02  7.5291e-03  9.4308e-01  6.5452e-01  3:35:39  458
    43  3.9635e+02  8.6878e-02  8.5584e-02  2.2556e-02  6.4320e-03  8.2680e-01  4.6428e-01  3:34:14  457
    44  4.1574e+02  8.3233e-02  8.3357e-02  2.4403e-02  1.1868e-02  8.2552e-01  5.1542e-01  3:34:15  456

  iter  continuity  x-velocity  y-velocity  z-velocity      energy           k       omega     time/iter
    45  4.5121e+02  7.9813e-02  1.0219e-01  2.6083e-02  6.3755e-03  7.5903e-01  4.8511e-01  3:32:47  455
    46  4.2928e+02  7.5279e-02  8.4381e-02  2.3026e-02  5.3036e-03  7.5610e-01  4.7459e-01  3:35:26  454
    47  4.3838e+02  7.3486e-02  9.4931e-02  2.4293e-02  5.6979e-03  9.2622e-01  6.4654e-01  3:35:06  453
    48  4.8034e+02  8.0983e-02  9.4772e-02  2.4967e-02  6.8349e-03  8.4187e-01  4.7628e-01  3:34:11  452
    49  4.7236e+02  6.9321e-02  1.0005e-01  2.3176e-02  5.9977e-03  7.3665e-01  4.7358e-01  3:36:00  451
    50  4.8987e+02  7.0834e-02  9.6692e-02  2.4475e-02  7.4501e-03  7.2304e-01  4.9053e-01  3:35:15  450
    51  4.8730e+02  7.4412e-02  8.9800e-02  2.4677e-02  5.4801e-03  7.7807e-01  5.1323e-01  3:34:32  449
    52  5.5309e+02  7.0223e-02  9.9002e-02  2.5210e-02  6.8529e-03  9.1321e-01  5.8380e-01  3:34:42  448
    53  5.6481e+02  6.0998e-02  1.0393e-01  2.4158e-02  1.0567e-02  8.4100e-01  4.7853e-01  3:33:54  447
    54  5.4852e+02  8.3034e-02  7.1969e-02  2.2573e-02  6.4762e-03  8.0583e-01  5.2639e-01  3:33:05  446
    55  5.8915e+02  6.5388e-02  9.8477e-02  2.4188e-02  8.7269e-03  1.0159e+00  6.3283e-01  3:32:26  445

  iter  continuity  x-velocity  y-velocity  z-velocity      energy           k       omega     time/iter
    56  5.9678e+02  6.9577e-02  1.0128e-01  2.4175e-02  7.2049e-03  8.9912e-01  4.9700e-01  3:31:53  444
    57  6.3352e+02  6.2128e-02  1.0202e-01  2.6223e-02  1.0348e-02  8.5739e-01  5.0227e-01  3:31:10  443
    58  6.4656e+02  8.7031e-02  8.6427e-02  2.5526e-02  9.0896e-03  7.8742e-01  4.8773e-01  3:27:42  442
    59  6.5538e+02  6.5740e-02  9.6474e-02  2.3856e-02  8.6790e-03  9.4051e-01  5.8434e-01  3:25:10  441
    60  6.4637e+02  6.9066e-02  1.0528e-01  2.4905e-02  6.8378e-03  9.3683e-01  5.1931e-01  3:25:15  440
    61  7.2422e+02  6.7618e-02  9.8275e-02  2.6025e-02  1.0897e-02  8.7140e-01  4.9705e-01  3:26:20  439
    62  7.2121e+02  8.0070e-02  7.8460e-02  2.4257e-02  7.3346e-03  7.7530e-01  4.9064e-01  3:26:13  438
    63  7.4131e+02  6.5973e-02  1.0949e-01  2.6878e-02  1.1690e-02  9.8944e-01  6.1635e-01  3:25:33  437
    64  7.4207e+02  7.8206e-02  9.4865e-02  2.3390e-02  9.1534e-03  8.6024e-01  4.7779e-01  3:25:38  436
    65  8.1309e+02  7.6551e-02  9.3863e-02  2.6209e-02  1.0378e-02  9.2110e-01  5.6605e-01  3:27:00  435
    66  8.1061e+02  7.1451e-02  8.5855e-02  2.5459e-02  9.2869e-03  9.0417e-01  5.1992e-01  3:26:16  434

  iter  continuity  x-velocity  y-velocity  z-velocity      energy           k       omega     time/iter
    67  8.2864e+02  7.1588e-02  9.7531e-02  2.5037e-02  9.8930e-03  9.0259e-01  5.1331e-01  3:25:30  433
    68  8.2541e+02  7.0024e-02  9.3982e-02  2.6942e-02  8.7408e-03  9.1145e-01  5.2980e-01  3:24:46  432
    69  9.2007e+02  7.5986e-02  9.8290e-02  2.8449e-02  1.1180e-02  9.0701e-01  5.1206e-01  3:24:10  431
    70  8.9402e+02  7.4356e-02  9.3517e-02  2.7904e-02  9.1331e-03  8.1448e-01  4.8856e-01  3:23:30  430
    71  8.8558e+02  6.3250e-02  1.0639e-01  2.6224e-02  1.0389e-02  9.1563e-01  5.5820e-01  3:23:00  429
    72  9.2181e+02  7.2878e-02  9.7177e-02  2.6683e-02  1.4347e-02  8.4998e-01  4.9032e-01  3:22:12  428
    73  9.8964e+02  8.2923e-02  8.8026e-02  2.5747e-02  1.1745e-02  8.6105e-01  5.3220e-01  3:23:27  427
    74  9.2423e+02  6.9975e-02  8.9327e-02  2.6045e-02  1.2110e-02  9.7411e-01  6.0416e-01  3:20:48  426
    75  1.0513e+03  8.3839e-02  9.7149e-02  2.7905e-02  1.2765e-02  9.3728e-01  5.2003e-01  3:20:23  425
    76  1.0041e+03  7.0430e-02  8.5852e-02  2.5694e-02  1.1061e-02  8.7492e-01  4.9661e-01  3:19:42  424
    77  1.0782e+03  7.3236e-02  1.0140e-01  2.9786e-02  1.4268e-02  9.7225e-01  5.7726e-01  3:18:49  423

  iter  continuity  x-velocity  y-velocity  z-velocity      energy           k       omega     time/iter
    78  1.0121e+03  6.9475e-02  8.9058e-02  2.5641e-02  1.0081e-02  8.6824e-01  4.9151e-01  3:18:33  422
    79  1.1157e+03  6.0902e-02  1.0047e-01  2.6353e-02  1.2518e-02  9.8281e-01  5.8871e-01  3:17:56  421
    80  1.1119e+03  6.5330e-02  9.7515e-02  2.6588e-02  1.7646e-02  9.0820e-01  5.0663e-01  3:17:37  420
    81  1.1374e+03  7.2258e-02  8.7969e-02  2.6069e-02  1.5824e-02  8.9777e-01  5.1831e-01  3:17:13  419
    82  1.1805e+03  6.6202e-02  9.2743e-02  2.5844e-02  1.3790e-02  9.4126e-01  5.5795e-01  3:16:49  418
    83  1.2819e+03  7.3716e-02  9.8605e-02  2.8080e-02  1.5796e-02  9.6883e-01  5.5517e-01  3:14:25  417
    84  1.2215e+03  6.8341e-02  8.9368e-02  2.5356e-02  1.4164e-02  9.1516e-01  5.1163e-01  3:14:30  416
    85  1.2853e+03  7.6471e-02  9.1216e-02  2.9330e-02  1.4405e-02  9.5904e-01  5.3461e-01  3:14:36  415
    86  1.3181e+03  7.4006e-02  9.4456e-02  2.7771e-02  1.5929e-02  9.0867e-01  5.0937e-01  3:15:02  414
    87  1.3307e+03  6.4283e-02  9.8287e-02  2.6242e-02  1.4094e-02  9.4581e-01  5.3434e-01  3:14:40  413
    88  1.3486e+03  6.1998e-02  1.0120e-01  2.7038e-02  2.0274e-02  1.0622e+00  5.9030e-01  3:14:24  412

  iter  continuity  x-velocity  y-velocity  z-velocity      energy           k       omega     time/iter
    89  1.4348e+03  7.9362e-02  8.8527e-02  2.8425e-02  2.1158e-02  9.5485e-01  5.2521e-01  3:15:20  411
    90  1.4720e+03  6.8919e-02  9.1341e-02  2.5946e-02  1.4235e-02  9.3349e-01  5.2343e-01  3:14:44  410
    91  1.4993e+03  6.2488e-02  1.0007e-01  2.9251e-02  1.8791e-02  9.8756e-01  5.5175e-01  3:14:03  409
    92  1.4226e+03  7.1926e-02  9.3049e-02  2.9501e-02  1.6628e-02  9.2246e-01  4.9778e-01  3:14:41  408
    93  1.5711e+03  7.1755e-02  9.5233e-02  2.8888e-02  1.9324e-02  1.0869e+00  5.8769e-01  3:14:36  407
    94  1.6079e+03  7.4413e-02  9.5048e-02  2.9428e-02  1.8775e-02  9.5532e-01  5.1906e-01  3:14:16  406
    95  1.6075e+03  5.8737e-02  1.0171e-01  2.7677e-02  2.0474e-02  9.7575e-01  5.3517e-01  3:13:32  405
    96  1.6702e+03  6.1131e-02  1.0778e-01  2.8971e-02  2.1438e-02  1.0229e+00  5.6052e-01  3:13:20  404
    97  1.7037e+03  7.8063e-02  9.5825e-02  3.0355e-02  1.7329e-02  1.0159e+00  5.5370e-01  3:12:17  403
    98  1.7840e+03  6.3126e-02  1.0191e-01  2.8647e-02  1.8291e-02  9.5578e-01  5.1295e-01  3:11:24  402
    99  1.7358e+03  6.5169e-02  1.0033e-01  2.9560e-02  2.0888e-02  9.3869e-01  5.1132e-01  3:10:20  401

  iter  continuity  x-velocity  y-velocity  z-velocity      energy           k       omega     time/iter
   100  1.7951e+03  7.7664e-02  9.5745e-02  3.0275e-02  2.3942e-02  1.0339e+00  5.5901e-01  3:09:33  400
   101  1.8992e+03  6.5905e-02  9.7888e-02  2.8404e-02  2.0598e-02  1.0619e+00  5.6059e-01  3:09:55  399
   102  1.9280e+03  6.9751e-02  9.4773e-02  2.8784e-02  2.3354e-02  1.0301e+00  5.4945e-01  3:08:41  398
   103  2.0253e+03  6.0639e-02  1.0364e-01  2.8482e-02  3.0076e-02  9.7903e-01  5.2530e-01  3:08:20  397
   104  2.0812e+03  6.7101e-02  9.0936e-02  2.7901e-02  2.3056e-02  9.6702e-01  5.2310e-01  3:07:29  396
   105  2.0803e+03  7.0610e-02  1.0910e-01  3.2634e-02  2.0658e-02  9.8894e-01  5.2651e-01  3:06:33  395
   106  1.9896e+03  5.4394e-02  1.0526e-01  2.9895e-02  2.1162e-02  9.9473e-01  5.2598e-01  3:06:02  394
   107  2.2188e+03  7.9534e-02  1.0740e-01  3.4138e-02  2.7602e-02  1.0535e+00  5.6129e-01  3:05:41  393
   108  2.2289e+03  7.2410e-02  9.5267e-02  2.9406e-02  2.5362e-02  9.5019e-01  5.0989e-01  3:05:33  392
   109  2.3549e+03  6.9376e-02  9.9958e-02  2.8544e-02  3.3284e-02  1.0679e+00  5.7456e-01  3:06:30  391
   110  2.1957e+03  7.2862e-02  8.4288e-02  2.6299e-02  2.9800e-02  1.0714e+00  5.7753e-01  3:07:04  390

  iter  continuity  x-velocity  y-velocity  z-velocity      energy           k       omega     time/iter
   111  2.4526e+03  7.2183e-02  1.0033e-01  3.0817e-02  2.6232e-02  1.0003e+00  5.3321e-01  3:06:54  389
   112  2.3735e+03  6.9884e-02  9.4647e-02  2.9564e-02  2.2083e-02  9.6166e-01  5.1388e-01  3:05:08  388
   113  2.5375e+03  7.0056e-02  1.1232e-01  3.3235e-02  2.6610e-02  1.0313e+00  5.4194e-01  3:04:23  387
   114  2.4170e+03  5.8074e-02  1.1107e-01  3.1110e-02  2.2512e-02  1.0041e+00  5.3273e-01  3:03:08  386
   115  2.6269e+03  7.3950e-02  1.0392e-01  3.1883e-02  2.4924e-02  1.0790e+00  5.7845e-01  3:02:56  385
   116  2.5874e+03  6.5896e-02  9.7672e-02  2.9933e-02  4.8267e-02  9.9636e-01  5.2778e-01  3:03:08  384
   117  2.7230e+03  8.4374e-02  1.0143e-01  3.0970e-02  4.2144e-02  1.0624e+00  5.6785e-01  3:02:02  383
   118  2.6127e+03  6.5655e-02  1.1364e-01  3.2830e-02  2.5015e-02  1.0107e+00  5.2835e-01  3:00:37  382
   119  2.8458e+03  6.9357e-02  1.0601e-01  3.2706e-02  2.8708e-02  1.0282e+00  5.4233e-01  2:59:39  381
   120  2.8830e+03  7.2315e-02  9.2405e-02  3.1595e-02  2.5062e-02  9.9587e-01  5.2767e-01  3:00:22  380
   121  2.9375e+03  6.4683e-02  9.5677e-02  2.9010e-02  2.6192e-02  1.0609e+00  5.5829e-01  3:00:08  379

  iter  continuity  x-velocity  y-velocity  z-velocity      energy           k       omega     time/iter
   122  2.9125e+03  6.5018e-02  1.0573e-01  3.1136e-02  2.6560e-02  1.0265e+00  5.4563e-01  2:59:27  378
   123  2.9982e+03  7.0046e-02  9.6591e-02  3.0216e-02  2.7193e-02  1.0678e+00  5.6496e-01  2:57:09  377
   124  3.1107e+03  6.8202e-02  1.0215e-01  3.0960e-02  2.9223e-02  1.0355e+00  5.5027e-01  2:56:35  376
   125  3.1697e+03  7.3103e-02  9.6653e-02  3.1944e-02  2.3912e-02  1.0453e+00  5.5017e-01  2:55:57  375
   126  3.3439e+03  6.4807e-02  1.0448e-01  3.1378e-02  3.0825e-02  9.9323e-01  5.2196e-01  2:55:51  374
   127  3.2323e+03  6.7092e-02  9.1212e-02  2.8219e-02  2.5933e-02  1.0184e+00  5.3221e-01  2:56:36  373
   128  3.3601e+03  7.4893e-02  1.0335e-01  3.1946e-02  2.9646e-02  1.0724e+00  5.5855e-01  2:56:03  372
   129  3.4155e+03  6.4809e-02  9.3982e-02  2.9611e-02  2.4805e-02  1.0343e+00  5.3834e-01  2:58:34  371
   130  3.6261e+03  6.1330e-02  9.8952e-02  2.8455e-02  3.3575e-02  1.0400e+00  5.4687e-01  2:57:36  370
   131  3.5500e+03  6.8953e-02  9.2999e-02  2.8169e-02  3.1351e-02  1.0268e+00  5.4452e-01  2:56:17  369
   132  3.4943e+03  7.1685e-02  1.1131e-01  3.1287e-02  2.6444e-02  1.0772e+00  5.6376e-01  2:54:39  368

  iter  continuity  x-velocity  y-velocity  z-velocity      energy           k       omega     time/iter
   133  3.6345e+03  6.4952e-02  1.0180e-01  3.1508e-02  2.7081e-02  1.0198e+00  5.3364e-01  2:53:30  367
   134  3.8956e+03  6.6514e-02  9.9793e-02  3.1029e-02  2.3970e-02  9.8900e-01  5.1367e-01  2:53:25  366
   135  3.6224e+03  7.2864e-02  1.0077e-01  3.1203e-02  2.6594e-02  1.0493e+00  5.4310e-01  2:52:08  365
   136  3.6363e+03  7.0921e-02  1.0878e-01  3.2110e-02  2.7037e-02  1.0650e+00  5.4165e-01  2:55:10  364
   137  3.7766e+03  6.2576e-02  1.0435e-01  3.0231e-02  3.3889e-02  1.0435e+00  5.4304e-01  2:55:20  363
   138  4.1618e+03  7.3684e-02  1.0317e-01  3.1558e-02  3.7420e-02  1.0376e+00  5.4593e-01  2:54:37  362
   139  3.9035e+03  6.9378e-02  8.5173e-02  2.7707e-02  2.9140e-02  1.0198e+00  5.3718e-01  2:53:40  361
   140  3.9157e+03  6.7180e-02  1.0850e-01  3.2310e-02  2.8039e-02  1.0959e+00  5.8172e-01  2:54:10  360
   141  3.9262e+03  6.8671e-02  1.0068e-01  3.1658e-02  2.3007e-02  1.0036e+00  5.2215e-01  2:54:28  359
   142  4.2826e+03  6.6955e-02  1.0211e-01  3.2621e-02  2.1890e-02  9.8227e-01  5.1766e-01  2:53:10  358
   143  4.0596e+03  7.2793e-02  1.0286e-01  3.2374e-02  2.5368e-02  1.0075e+00  5.2741e-01  2:51:33  357

  iter  continuity  x-velocity  y-velocity  z-velocity      energy           k       omega     time/iter
   144  4.0326e+03  6.9816e-02  1.0851e-01  3.2549e-02  2.6062e-02  1.0506e+00  5.3615e-01  2:50:46  356
   145  4.1296e+03  6.5135e-02  1.1194e-01  3.1947e-02  3.8723e-02  1.1007e+00  5.6463e-01  2:49:06  355
   146  4.2229e+03  6.8286e-02  1.0422e-01  3.0937e-02  2.9518e-02  1.0053e+00  5.2669e-01  2:48:35  354
   147  4.3814e+03  7.1865e-02  1.1505e-01  3.2552e-02  2.5708e-02  1.0541e+00  5.5705e-01  2:48:13  353
   148  4.2264e+03  7.1988e-02  1.0754e-01  3.3383e-02  2.6325e-02  1.0525e+00  5.5849e-01  2:45:44  352
   149  4.3254e+03  6.6916e-02  1.0687e-01  3.3523e-02  3.2141e-02  1.0222e+00  5.3179e-01  2:43:55  351
   150  4.6716e+03  7.5776e-02  1.0485e-01  3.4955e-02  2.9522e-02  1.0232e+00  5.4148e-01  2:44:11  350
   151  4.6909e+03  7.1544e-02  9.8915e-02  3.3098e-02  2.5775e-02  9.8711e-01  5.1645e-01  2:45:24  349
   152  4.3624e+03  6.7834e-02  9.6580e-02  3.0762e-02  3.2093e-02  1.0509e+00  5.4594e-01  2:46:25  348
   153  4.5678e+03  6.9588e-02  1.1578e-01  3.5712e-02  3.6382e-02  1.0238e+00  5.3296e-01  2:45:52  347
   154  4.6960e+03  7.8771e-02  8.5169e-02  3.0305e-02  3.3681e-02  1.0036e+00  5.2076e-01  2:44:56  346

  iter  continuity  x-velocity  y-velocity  z-velocity      energy           k       omega     time/iter
   155  4.9339e+03  6.8686e-02  1.0842e-01  3.2614e-02  2.7530e-02  1.0368e+00  5.4259e-01  2:44:08  345
   156  4.5352e+03  6.5527e-02  1.0129e-01  3.1751e-02  3.0633e-02  1.0713e+00  5.7591e-01  2:41:48  344
   157  4.7625e+03  5.6427e-02  1.0794e-01  3.1295e-02  3.6896e-02  1.0087e+00  5.2912e-01  2:41:31  343
   158  5.0546e+03  8.2114e-02  9.8415e-02  3.3251e-02  2.6785e-02  1.0876e+00  5.7922e-01  2:42:10  342
   159  4.9780e+03  7.2945e-02  1.0146e-01  3.5437e-02  2.4860e-02  9.7922e-01  5.1184e-01  2:42:03  341
   160  4.8666e+03  5.9085e-02  9.4635e-02  2.8817e-02  2.5873e-02  1.0486e+00  5.4176e-01  2:41:00  340
   161  5.0869e+03  7.7391e-02  1.0265e-01  3.5186e-02  3.3374e-02  1.0681e+00  5.5840e-01  2:42:11  339
   162  5.2134e+03  7.2731e-02  8.1974e-02  2.9646e-02  2.6026e-02  1.0289e+00  5.3935e-01  2:42:47  338
   163  5.3030e+03  6.4856e-02  1.0261e-01  3.1527e-02  3.5241e-02  1.0356e+00  5.4033e-01  2:43:10  337
   164  5.3399e+03  6.2265e-02  9.6131e-02  2.8326e-02  2.6593e-02  1.0573e+00  5.5745e-01  2:41:50  336
   165  5.2630e+03  6.7129e-02  1.0352e-01  3.2790e-02  2.5653e-02  1.0233e+00  5.3635e-01  2:40:17  335

  iter  continuity  x-velocity  y-velocity  z-velocity      energy           k       omega     time/iter
   166  5.7047e+03  7.1752e-02  1.0361e-01  3.4225e-02  2.7722e-02  1.0281e+00  5.3850e-01  2:40:40  334
   167  5.3925e+03  6.8579e-02  9.3606e-02  3.1519e-02  2.6898e-02  1.0170e+00  5.2631e-01  2:36:59  333
   168  5.9791e+03  6.6860e-02  1.0980e-01  3.2488e-02  3.3705e-02  1.0703e+00  5.5197e-01  2:38:59  332
   169  5.6406e+03  7.3149e-02  9.1398e-02  3.1397e-02  3.3618e-02  1.0475e+00  5.4273e-01  2:37:32  331
   170  6.1337e+03  8.0088e-02  8.5935e-02  3.0869e-02  3.3488e-02  1.0602e+00  5.5201e-01  2:37:48  330
   171  5.6833e+03  6.0252e-02  9.6042e-02  3.0599e-02  3.0327e-02  1.0005e+00  5.2939e-01  2:38:12  329
   172  6.2300e+03  7.2906e-02  9.3511e-02  3.1550e-02  2.7960e-02  1.0698e+00  5.6876e-01  2:38:59  328
   173  5.6618e+03  6.2070e-02  9.6369e-02  3.0646e-02  2.5792e-02  9.8888e-01  5.1617e-01  2:34:30  327
   174  6.8644e+03  7.8488e-02  1.1245e-01  3.7587e-02  3.3640e-02  1.0642e+00  5.5296e-01  2:32:10  326
   175  5.8805e+03  6.3780e-02  9.3951e-02  3.1883e-02  2.8161e-02  1.0120e+00  5.1968e-01  2:30:47  325
   176  6.6616e+03  6.8939e-02  1.1060e-01  3.4460e-02  4.0723e-02  1.1311e+00  5.7938e-01  2:29:42  324

  iter  continuity  x-velocity  y-velocity  z-velocity      energy           k       omega     time/iter
   177  6.4613e+03  7.4835e-02  9.7722e-02  3.1213e-02  3.7186e-02  1.0131e+00  5.2359e-01  2:29:43  323
   178  6.7690e+03  7.8678e-02  9.5043e-02  3.3496e-02  3.1429e-02  1.0808e+00  5.6078e-01  2:30:58  322
   179  6.4690e+03  6.4528e-02  9.6621e-02  3.1419e-02  3.2975e-02  1.0250e+00  5.3388e-01  2:27:56  321
   180  7.3646e+03  6.2523e-02  1.0033e-01  3.1555e-02  2.6854e-02  1.0418e+00  5.4007e-01  2:28:07  320
   181  6.5025e+03  6.4022e-02  9.6677e-02  3.2232e-02  2.9284e-02  1.0329e+00  5.3957e-01  2:25:50  319
   182  7.5301e+03  7.3651e-02  1.0703e-01  3.4854e-02  2.7644e-02  1.0534e+00  5.4892e-01  2:27:52  318
   183  6.7466e+03  5.4817e-02  8.1512e-02  2.8900e-02  2.9105e-02  1.0170e+00  5.2444e-01  2:26:26  317
   184  7.7004e+03  7.3896e-02  1.0269e-01  3.3888e-02  3.3665e-02  1.1111e+00  5.7262e-01  2:27:49  316
   185  7.0383e+03  6.4660e-02  8.5963e-02  3.0935e-02  3.4911e-02  1.0121e+00  5.2318e-01  2:25:22  315
   186  8.0835e+03  7.5659e-02  9.8383e-02  3.3184e-02  3.3352e-02  1.0637e+00  5.4386e-01  2:24:15  314
   187  7.3085e+03  5.8920e-02  8.9231e-02  3.1126e-02  2.8548e-02  1.0295e+00  5.3184e-01  2:21:56  313

  iter  continuity  x-velocity  y-velocity  z-velocity      energy           k       omega     time/iter
   188  8.6272e+03  6.2497e-02  1.1009e-01  3.3646e-02  3.3324e-02  1.0724e+00  5.5473e-01  2:22:30  312
   189  7.7542e+03  6.2409e-02  8.5545e-02  3.1541e-02  4.0765e-02  1.0213e+00  5.3495e-01  2:20:45  311
   190  9.1249e+03  7.6821e-02  8.8448e-02  3.3629e-02  3.4185e-02  1.0652e+00  5.5614e-01  2:21:02  310
   191  8.4178e+03  4.7460e-02  8.4271e-02  3.0892e-02  2.4200e-02  1.0149e+00  5.2884e-01  2:19:17  309
   192  9.3026e+03  5.7772e-02  9.0630e-02  3.1980e-02  4.0758e-02  1.1016e+00  5.6863e-01  2:21:31  308
   193  8.6314e+03  5.7709e-02  7.3382e-02  2.8384e-02  2.6598e-02  1.0037e+00  5.1616e-01  2:19:48  307
   194  9.7818e+03  5.8968e-02  8.5656e-02  3.1094e-02  2.9134e-02  1.0503e+00  5.4166e-01  2:18:29  306
   195  9.1926e+03  4.8937e-02  7.8187e-02  2.9026e-02  2.4817e-02  1.0155e+00  5.2253e-01  2:17:29  305
   196  9.7242e+03  5.3085e-02  8.1169e-02  2.9722e-02  2.8878e-02  1.0568e+00  5.4268e-01  2:16:12  304
   197  1.0292e+04  5.8320e-02  7.9816e-02  3.1905e-02  3.7319e-02  1.0537e+00  5.5241e-01  2:15:48  303
   198  1.1326e+04  6.2571e-02  7.7128e-02  3.1551e-02  3.3796e-02  1.0329e+00  5.3680e-01  2:13:54  302

  iter  continuity  x-velocity  y-velocity  z-velocity      energy           k       omega     time/iter
   199  1.1977e+04  4.8517e-02  8.2411e-02  3.3184e-02  3.1640e-02  1.0458e+00  5.5376e-01  2:13:20  301
   200  1.2574e+04  4.8939e-02  7.0294e-02  3.4978e-02  3.5898e-02  1.0304e+00  5.4194e-01  2:13:43  300
   201  1.3150e+04  4.8289e-02  5.9975e-02  3.0220e-02  2.4822e-02  1.0186e+00  5.3604e-01  2:12:40  299
   202  1.4431e+04  3.5136e-02  5.0592e-02  2.7992e-02  2.4001e-02  9.7366e-01  5.0762e-01  2:11:42  298
   203  1.5197e+04  2.6418e-02  4.4913e-02  2.4408e-02  2.3657e-02  9.6342e-01  5.0983e-01  2:11:29  297
   204  1.5464e+04  2.2924e-02  3.3951e-02  2.0916e-02  1.5005e-02  8.7078e-01  4.6586e-01  2:10:24  296
   205  1.7020e+04  1.9703e-02  2.9060e-02  2.0032e-02  1.4556e-02  7.7482e-01  4.3546e-01  2:09:25  295
   206  1.9523e+04  1.8366e-02  2.6688e-02  2.3039e-02  1.3329e-02  7.1143e-01  4.1594e-01  2:08:50  294
   207  2.4226e+04  1.7423e-02  2.5160e-02  2.7707e-02  1.4825e-02  6.3164e-01  4.2261e-01  2:07:59  293
   208  3.1750e+04  2.0015e-02  2.9397e-02  4.0169e-02  2.0342e-02  5.6299e-01  4.0173e-01  2:08:20  292
   209  4.3700e+04  1.9288e-02  2.7729e-02  4.5296e-02  1.9169e-02  6.6386e-01  5.2767e-01  2:08:47  291

  iter  continuity  x-velocity  y-velocity  z-velocity      energy           k       omega     time/iter
   210  6.1690e+04  1.4200e-02  1.9825e-02  3.5487e-02  1.5415e-02  7.4357e-01  4.3150e-01  2:09:23  290
   211  8.6931e+04  9.2712e-03  1.2519e-02  2.3229e-02  1.2424e-02  7.1013e-01  4.1616e-01  2:08:04  289
   212  1.1652e+05  7.9883e-03  1.0814e-02  1.9565e-02  1.0613e-02  6.6168e-01  3.6178e-01  2:07:48  288
   213  1.5919e+05  6.2442e-03  8.1849e-03  1.7388e-02  1.0203e-02  4.9089e-01  3.4891e-01  2:06:37  287
   214  2.1578e+05  5.3487e-03  7.2011e-03  1.6243e-02  1.1156e-02  5.0639e-01  3.7647e-01  2:05:50  286
   215  2.9970e+05  5.6460e-03  8.0181e-03  1.6718e-02  1.1768e-02  5.5526e-01  3.6621e-01  2:06:29  285
   216  4.0344e+05  6.1082e-03  8.4346e-03  1.8318e-02  1.4944e-02  5.4498e-01  3.8045e-01  2:06:20  284
   217  5.5925e+05  7.9170e-03  1.0700e-02  2.3655e-02  1.8250e-02  5.6866e-01  3.7829e-01  2:06:12  283

 turbulent viscosity limited to viscosity ratio of 1.000000e+05 in 47 cells 
   218  7.7170e+05  9.4013e-03  1.2202e-02  3.0240e-02  1.9385e-02  6.1629e-01  3.9475e-01  2:05:45  282

 turbulent viscosity limited to viscosity ratio of 1.000000e+05 in 1858 cells 
   219  1.0859e+06  1.1317e-02  1.4573e-02  3.7648e-02  1.9763e-02  5.3922e-01  3.6968e-01  2:05:38  281

 turbulent viscosity limited to viscosity ratio of 1.000000e+05 in 5588 cells 
   220  1.5108e+06  1.2007e-02  1.6061e-02  4.0220e-02  1.9776e-02  5.5266e-01  3.6817e-01  2:07:11  280

 turbulent viscosity limited to viscosity ratio of 1.000000e+05 in 8314 cells 

  iter  continuity  x-velocity  y-velocity  z-velocity      energy           k       omega     time/iter
   221  1.7821e+06  1.2138e-02  1.6603e-02  3.8265e-02  2.2831e-02  6.8801e-01  3.9555e-01  2:06:56  279

 turbulent viscosity limited to viscosity ratio of 1.000000e+05 in 9686 cells 
   222  2.3678e+06  1.3884e-02  1.9329e-02  3.7893e-02  2.2385e-02  7.9353e-01  3.8173e-01  2:06:11  278

 turbulent viscosity limited to viscosity ratio of 1.000000e+05 in 11053 cells 
   223  2.8409e+06  1.2286e-02  1.6179e-02  3.5297e-02  2.0223e-02  7.6349e-01  3.7754e-01  2:05:33  277

 turbulent viscosity limited to viscosity ratio of 1.000000e+05 in 13637 cells 
   224  3.4077e+06  1.1494e-02  1.5295e-02  3.1846e-02  2.0891e-02  8.5659e-01  4.2218e-01  2:06:23  276

 turbulent viscosity limited to viscosity ratio of 1.000000e+05 in 18853 cells 
   225  3.7265e+06  1.0704e-02  1.3397e-02  2.6263e-02  2.3682e-02  8.3119e-01  4.3418e-01  2:05:49  275

 turbulent viscosity limited to viscosity ratio of 1.000000e+05 in 33982 cells 
   226  4.3626e+06  1.1254e-02  1.4019e-02  2.4557e-02  2.3398e-02  8.5640e-01  4.2108e-01  2:03:47  274

 turbulent viscosity limited to viscosity ratio of 1.000000e+05 in 46414 cells 
   227  5.0068e+06  1.1401e-02  1.2597e-02  2.4056e-02  2.3673e-02  8.4612e-01  4.2832e-01  2:03:34  273

 turbulent viscosity limited to viscosity ratio of 1.000000e+05 in 57642 cells 
   228  5.8621e+06  1.1501e-02  1.2925e-02  2.5890e-02  2.5483e-02  9.2578e-01  4.8179e-01  2:03:02  272

 turbulent viscosity limited to viscosity ratio of 1.000000e+05 in 64926 cells 
   229  7.4734e+06  1.2075e-02  1.3185e-02  2.8429e-02  2.5729e-02  8.8095e-01  4.5945e-01  2:02:19  271

 turbulent viscosity limited to viscosity ratio of 1.000000e+05 in 71236 cells 
   230  9.9485e+06  1.3229e-02  1.5263e-02  3.2842e-02  3.1325e-02  7.7315e-01  4.6890e-01  2:01:56  270

 turbulent viscosity limited to viscosity ratio of 1.000000e+05 in 84287 cells 
   231  1.4561e+07  1.5422e-02  1.8435e-02  4.1865e-02  3.6396e-02  6.5194e-01  4.3874e-01  2:01:42  269

 turbulent viscosity limited to viscosity ratio of 1.000000e+05 in 108498 cells 

  iter  continuity  x-velocity  y-velocity  z-velocity      energy           k       omega     time/iter
   232  1.9794e+07  1.5853e-02  2.0561e-02  4.6030e-02  4.0265e-02  7.2364e-01  4.4865e-01  2:01:11  268

 turbulent viscosity limited to viscosity ratio of 1.000000e+05 in 136054 cells 
   233  2.4973e+07  1.4926e-02  2.1770e-02  4.4864e-02  4.3952e-02  8.2717e-01  4.5035e-01  2:01:13  267

 turbulent viscosity limited to viscosity ratio of 1.000000e+05 in 161324 cells 
   234  3.1822e+07  1.3106e-02  2.2121e-02  4.1509e-02  3.9186e-02  8.7226e-01  4.2658e-01  2:00:34  266

 turbulent viscosity limited to viscosity ratio of 1.000000e+05 in 177242 cells 
   235  3.0656e+07  1.1360e-02  1.8871e-02  3.2030e-02  3.7001e-02  9.3981e-01  4.5922e-01  2:00:22  265

 turbulent viscosity limited to viscosity ratio of 1.000000e+05 in 176810 cells 
   236  3.9730e+07  1.1392e-02  2.0391e-02  2.8756e-02  3.9363e-02  9.6362e-01  4.6065e-01  1:58:43  264

 turbulent viscosity limited to viscosity ratio of 1.000000e+05 in 172086 cells 
   237  4.2741e+07  1.0397e-02  1.6133e-02  3.0484e-02  3.5673e-02  9.4755e-01  4.7336e-01  1:57:29  263

 turbulent viscosity limited to viscosity ratio of 1.000000e+05 in 177558 cells 
   238  4.7948e+07  1.1653e-02  1.7360e-02  2.8997e-02  3.4411e-02  9.3899e-01  4.7422e-01  1:56:18  262

 turbulent viscosity limited to viscosity ratio of 1.000000e+05 in 179227 cells 
   239  6.4065e+07  1.0931e-02  1.5760e-02  2.8773e-02  3.2387e-02  8.8908e-01  4.5929e-01  1:56:24  261

 turbulent viscosity limited to viscosity ratio of 1.000000e+05 in 180858 cells 
   240  8.3066e+07  1.1910e-02  1.7888e-02  3.1295e-02  3.8457e-02  7.9336e-01  4.5418e-01  1:55:27  260

 turbulent viscosity limited to viscosity ratio of 1.000000e+05 in 181413 cells 
   241  1.1138e+08  1.2798e-02  1.9260e-02  3.4673e-02  4.2804e-02  8.9885e-01  4.8353e-01  1:55:39  259

 turbulent viscosity limited to viscosity ratio of 1.000000e+05 in 184996 cells 
   242  1.3000e+08  1.5555e-02  2.2167e-02  3.8145e-02  4.5788e-02  9.0265e-01  4.8627e-01  1:55:39  258

 turbulent viscosity limited to viscosity ratio of 1.000000e+05 in 185721 cells 

  iter  continuity  x-velocity  y-velocity  z-velocity      energy           k       omega     time/iter
   243  1.4835e+08  1.7050e-02  2.5606e-02  4.2258e-02  4.8696e-02  8.7455e-01  4.6903e-01  1:55:36  257

 turbulent viscosity limited to viscosity ratio of 1.000000e+05 in 188501 cells 
   244  1.9010e+08  1.8348e-02  2.7941e-02  4.3741e-02  5.2041e-02  8.7595e-01  4.6701e-01  1:55:45  256

 turbulent viscosity limited to viscosity ratio of 1.000000e+05 in 194251 cells 
   245  1.9808e+08  1.7169e-02  2.5020e-02  4.4957e-02  4.6575e-02  9.4581e-01  4.8205e-01  1:54:47  255

 turbulent viscosity limited to viscosity ratio of 1.000000e+05 in 208272 cells 
   246  2.0733e+08  1.6644e-02  2.6137e-02  4.0233e-02  4.6419e-02  9.6863e-01  4.8178e-01  1:54:58  254

 turbulent viscosity limited to viscosity ratio of 1.000000e+05 in 215969 cells 
   247  2.6499e+08  1.5397e-02  2.3121e-02  3.8848e-02  4.5182e-02  9.5071e-01  4.6732e-01  1:54:46  253

 turbulent viscosity limited to viscosity ratio of 1.000000e+05 in 216143 cells 
   248  2.9794e+08  1.6234e-02  2.0799e-02  3.8931e-02  4.1754e-02  9.8315e-01  4.8413e-01  1:53:23  252

 turbulent viscosity limited to viscosity ratio of 1.000000e+05 in 213940 cells 
   249  3.7228e+08  1.5812e-02  1.9956e-02  3.6622e-02  4.0829e-02  9.8942e-01  4.8972e-01  1:52:13  251

 turbulent viscosity limited to viscosity ratio of 1.000000e+05 in 209031 cells 
   250  5.2413e+08  1.6304e-02  2.0645e-02  3.5681e-02  4.1800e-02  9.7969e-01  4.7792e-01  1:52:32  250

 turbulent viscosity limited to viscosity ratio of 1.000000e+05 in 205666 cells 
   251  7.1786e+08  1.5989e-02  2.1138e-02  3.6943e-02  4.2411e-02  9.8898e-01  4.8534e-01  1:52:22  249

 absolute pressure limited to 5.000000e+10 in 2 cells on zone 900 

 turbulent viscosity limited to viscosity ratio of 1.000000e+05 in 207050 cells 
   252  9.0892e+08  1.7775e-02  2.3947e-02  3.8094e-02  4.2686e-02  9.9012e-01  4.8810e-01  1:50:58  248

 absolute pressure limited to 5.000000e+10 in 5 cells on zone 900 

 turbulent viscosity limited to viscosity ratio of 1.000000e+05 in 207769 cells 
   253  9.1182e+08  1.9039e-02  2.6204e-02  3.9690e-02  4.2669e-02  9.8330e-01  4.8771e-01  1:49:56  247

 absolute pressure limited to 5.000000e+10 in 5 cells on zone 900 

 turbulent viscosity limited to viscosity ratio of 1.000000e+05 in 208228 cells 

  iter  continuity  x-velocity  y-velocity  z-velocity      energy           k       omega     time/iter
   254  1.1541e+09  1.9820e-02  2.9006e-02  3.9954e-02  4.2555e-02  9.9496e-01  4.9689e-01  1:50:30  246

 absolute pressure limited to 5.000000e+10 in 18 cells on zone 900 

 turbulent viscosity limited to viscosity ratio of 1.000000e+05 in 208908 cells 
   255  1.4663e+09  1.9441e-02  2.7976e-02  3.8786e-02  3.7903e-02  9.8621e-01  4.9231e-01  1:50:49  245

 absolute pressure limited to 5.000000e+10 in 32 cells on zone 900 

 turbulent viscosity limited to viscosity ratio of 1.000000e+05 in 217176 cells 
   256  1.5739e+09  1.9277e-02  2.9774e-02  3.5324e-02  4.0957e-02  9.8299e-01  4.9272e-01  1:50:46  244

 absolute pressure limited to 5.000000e+10 in 66 cells on zone 900 

 turbulent viscosity limited to viscosity ratio of 1.000000e+05 in 228622 cells 
   257  1.4892e+09  1.8974e-02  3.0067e-02  3.6518e-02  4.0659e-02  9.8916e-01  4.9282e-01  1:50:35  243

 absolute pressure limited to 5.000000e+10 in 76 cells on zone 900 

 turbulent viscosity limited to viscosity ratio of 1.000000e+05 in 228702 cells 
   258  1.5666e+09  1.8882e-02  2.8291e-02  3.4366e-02  4.0900e-02  9.9558e-01  4.9560e-01  1:50:14  242

 absolute pressure limited to 5.000000e+10 in 89 cells on zone 900 

 turbulent viscosity limited to viscosity ratio of 1.000000e+05 in 225315 cells 
   259  1.9435e+09  1.7988e-02  2.7561e-02  3.3947e-02  3.7806e-02  9.9279e-01  4.9079e-01  1:49:51  241

 absolute pressure limited to 5.000000e+10 in 117 cells on zone 900 

 turbulent viscosity limited to viscosity ratio of 1.000000e+05 in 220418 cells 
   260  2.3869e+09  1.7291e-02  2.8876e-02  3.3113e-02  3.8627e-02  9.9532e-01  4.9095e-01  1:49:24  240

 absolute pressure limited to 5.000000e+10 in 146 cells on zone 900 

 turbulent viscosity limited to viscosity ratio of 1.000000e+05 in 216174 cells 
   261  2.9351e+09  1.7214e-02  2.9886e-02  3.4455e-02  3.9811e-02  9.9069e-01  4.8598e-01  1:48:59  239

 absolute pressure limited to 5.000000e+10 in 252 cells on zone 900 

 turbulent viscosity limited to viscosity ratio of 1.000000e+05 in 218226 cells 
   262  3.6653e+09  1.7352e-02  3.0375e-02  3.5952e-02  3.7165e-02  9.7334e-01  4.7662e-01  1:49:24  238

 absolute pressure limited to 5.000000e+10 in 472 cells on zone 900 

 turbulent viscosity limited to viscosity ratio of 1.000000e+05 in 227607 cells 
   263  4.4501e+09  1.8872e-02  3.1994e-02  3.8184e-02  4.9293e-02  9.7621e-01  4.7951e-01  1:49:14  237

 absolute pressure limited to 5.000000e+10 in 8210 cells on zone 900 

 turbulent viscosity limited to viscosity ratio of 1.000000e+05 in 236193 cells 
   264  4.9028e+09  1.9870e-02  3.2509e-02  3.7782e-02  5.0427e-02  9.7316e-01  4.7667e-01  1:49:52  236

 absolute pressure limited to 5.000000e+10 in 41466 cells on zone 900 

 turbulent viscosity limited to viscosity ratio of 1.000000e+05 in 237937 cells 

  iter  continuity  x-velocity  y-velocity  z-velocity      energy           k       omega     time/iter
   265  5.6143e+09  1.7873e-02  2.8450e-02  3.2396e-02  3.9433e-02  9.8085e-01  4.8246e-01  1:47:55  235

 absolute pressure limited to 5.000000e+10 in 67590 cells on zone 900 

 turbulent viscosity limited to viscosity ratio of 1.000000e+05 in 234501 cells 
   266  6.1668e+09  1.7443e-02  2.9764e-02  3.3916e-02  3.6944e-02  9.8972e-01  4.9132e-01  1:46:30  234

 absolute pressure limited to 5.000000e+10 in 165169 cells on zone 900 

 turbulent viscosity limited to viscosity ratio of 1.000000e+05 in 230145 cells 
   267  6.7737e+09  1.8548e-02  3.3379e-02  3.3451e-02  3.7855e-02  9.9705e-01  4.9803e-01  1:46:15  233

 absolute pressure limited to 5.000000e+10 in 250225 cells on zone 900 

 turbulent viscosity limited to viscosity ratio of 1.000000e+05 in 228124 cells 
   268  7.6110e+09  2.0226e-02  3.7651e-02  3.2954e-02  4.2014e-02  9.9746e-01  4.9805e-01  1:44:30  232

 absolute pressure limited to 5.000000e+10 in 262165 cells on zone 900 

 turbulent viscosity limited to viscosity ratio of 1.000000e+05 in 241273 cells 
   269  7.4081e+09  2.2639e-02  4.5008e-02  3.3826e-02  5.5746e-02  9.9775e-01  4.9817e-01  1:43:11  231

 absolute pressure limited to 5.000000e+10 in 262844 cells on zone 900 

 turbulent viscosity limited to viscosity ratio of 1.000000e+05 in 242256 cells 
   270  7.8489e+09  2.4446e-02  4.9620e-02  3.5003e-02  5.5592e-02  9.9622e-01  4.9768e-01  1:42:45  230

 absolute pressure limited to 5.000000e+10 in 262995 cells on zone 900 

 turbulent viscosity limited to viscosity ratio of 1.000000e+05 in 242683 cells 
   271  1.1974e+10  2.5127e-02  4.6963e-02  3.9112e-02  5.9487e-02  1.0020e+00  5.0051e-01  1:41:41  229

 absolute pressure limited to 5.000000e+10 in 263026 cells on zone 900 

 turbulent viscosity limited to viscosity ratio of 1.000000e+05 in 243071 cells 
   272  1.1066e+10  2.2844e-02  5.0241e-02  4.0876e-02  4.9989e-02  9.9741e-01  4.9632e-01  1:40:32  228

 absolute pressure limited to 5.000000e+10 in 263137 cells on zone 900 

 turbulent viscosity limited to viscosity ratio of 1.000000e+05 in 240921 cells 
   273  1.2787e+10  2.4536e-02  4.9048e-02  4.3469e-02  4.4973e-02  9.9866e-01  4.9806e-01  1:40:42  227

 absolute pressure limited to 5.000000e+10 in 263118 cells on zone 900 

 turbulent viscosity limited to viscosity ratio of 1.000000e+05 in 241319 cells 
   274  1.5314e+10  2.3740e-02  4.9951e-02  4.5598e-02  3.8286e-02  9.9762e-01  4.9779e-01  1:39:25  226

 absolute pressure limited to 5.000000e+10 in 263129 cells on zone 900 

 turbulent viscosity limited to viscosity ratio of 1.000000e+05 in 246774 cells 
   275  1.6162e+10  2.0789e-02  4.8164e-02  4.8251e-02  3.4831e-02  9.8870e-01  4.9494e-01  1:39:48  225

 absolute pressure limited to 5.000000e+10 in 263136 cells on zone 900 

 turbulent viscosity limited to viscosity ratio of 1.000000e+05 in 249605 cells 

  iter  continuity  x-velocity  y-velocity  z-velocity      energy           k       omega     time/iter
   276  1.7483e+10  2.0097e-02  4.7698e-02  4.8015e-02  3.0728e-02  9.9560e-01  4.9649e-01  1:41:13  224

 absolute pressure limited to 5.000000e+10 in 263139 cells on zone 900 

 turbulent viscosity limited to viscosity ratio of 1.000000e+05 in 251304 cells 
   277  1.8136e+10  2.0530e-02  4.7433e-02  4.5191e-02  2.5955e-02  9.9703e-01  4.9743e-01  1:39:46  223

 absolute pressure limited to 5.000000e+10 in 263142 cells on zone 900 

 turbulent viscosity limited to viscosity ratio of 1.000000e+05 in 251589 cells 
   278  1.7751e+10  1.9630e-02  4.5717e-02  4.3768e-02  2.3777e-02  9.9787e-01  4.9782e-01  1:38:53  222

 absolute pressure limited to 5.000000e+10 in 263119 cells on zone 900 

 turbulent viscosity limited to viscosity ratio of 1.000000e+05 in 252646 cells 
   279  1.7314e+10  1.8910e-02  4.4160e-02  4.6361e-02  2.2814e-02  9.9081e-01  4.9519e-01  1:37:41  221

 absolute pressure limited to 5.000000e+10 in 263113 cells on zone 900 

 turbulent viscosity limited to viscosity ratio of 1.000000e+05 in 253346 cells 
   280  1.7848e+10  1.9436e-02  4.3995e-02  4.8206e-02  2.2027e-02  9.7326e-01  4.8999e-01  1:37:58  220

 absolute pressure limited to 5.000000e+10 in 263125 cells on zone 900 

 turbulent viscosity limited to viscosity ratio of 1.000000e+05 in 253901 cells 
   281  1.8225e+10  1.9165e-02  4.3138e-02  4.9688e-02  2.1818e-02  9.6916e-01  4.8416e-01  1:36:59  219

 absolute pressure limited to 5.000000e+10 in 263136 cells on zone 900 

 turbulent viscosity limited to viscosity ratio of 1.000000e+05 in 254230 cells 
   282  1.9134e+10  1.8972e-02  4.3857e-02  5.1188e-02  2.2561e-02  9.8962e-01  4.9134e-01  1:35:57  218

 absolute pressure limited to 5.000000e+10 in 263133 cells on zone 900 

 turbulent viscosity limited to viscosity ratio of 1.000000e+05 in 254589 cells 
   283  2.0683e+10  1.9949e-02  4.5524e-02  5.3104e-02  2.2503e-02  9.9570e-01  4.9594e-01  1:35:07  217

 absolute pressure limited to 5.000000e+10 in 263135 cells on zone 900 

 turbulent viscosity limited to viscosity ratio of 1.000000e+05 in 254670 cells 
   284  2.1506e+10  1.9428e-02  4.5808e-02  5.1662e-02  2.3711e-02  9.9918e-01  4.9929e-01  1:35:14  216

 absolute pressure limited to 5.000000e+10 in 263141 cells on zone 900 

 turbulent viscosity limited to viscosity ratio of 1.000000e+05 in 254799 cells 
   285  2.2122e+10  1.9516e-02  4.6245e-02  5.1275e-02  2.1464e-02  9.9594e-01  4.9825e-01  1:35:29  215

 absolute pressure limited to 5.000000e+10 in 263123 cells on zone 900 

 turbulent viscosity limited to viscosity ratio of 1.000000e+05 in 254833 cells 
   286  2.2865e+10  1.9150e-02  4.5523e-02  5.0756e-02  2.2359e-02  9.9042e-01  4.9644e-01  1:35:29  214

 absolute pressure limited to 5.000000e+10 in 263133 cells on zone 900 

 turbulent viscosity limited to viscosity ratio of 1.000000e+05 in 254922 cells 

  iter  continuity  x-velocity  y-velocity  z-velocity      energy           k       omega     time/iter
   287  2.3416e+10  1.9090e-02  4.5427e-02  5.1600e-02  2.3770e-02  9.9123e-01  4.9431e-01  1:35:17  213

 absolute pressure limited to 5.000000e+10 in 263116 cells on zone 900 

 turbulent viscosity limited to viscosity ratio of 1.000000e+05 in 254840 cells 
   288  2.4553e+10  1.9475e-02  4.5928e-02  5.0724e-02  2.2003e-02  9.9237e-01  4.9375e-01  1:35:19  212

 absolute pressure limited to 5.000000e+10 in 263142 cells on zone 900 

 turbulent viscosity limited to viscosity ratio of 1.000000e+05 in 254944 cells 
   289  2.4986e+10  1.9015e-02  4.5484e-02  4.9751e-02  2.0628e-02  9.8870e-01  4.9098e-01  1:34:58  211

 absolute pressure limited to 5.000000e+10 in 263134 cells on zone 900 

 turbulent viscosity limited to viscosity ratio of 1.000000e+05 in 255073 cells 
   290  2.4882e+10  1.8581e-02  4.4407e-02  4.7679e-02  2.1084e-02  9.8746e-01  4.8959e-01  1:34:40  210

 absolute pressure limited to 5.000000e+10 in 263121 cells on zone 900 

 turbulent viscosity limited to viscosity ratio of 1.000000e+05 in 255104 cells 
   291  2.4720e+10  1.8540e-02  4.3892e-02  4.8447e-02  1.9993e-02  9.9591e-01  4.9574e-01  1:34:42  209

 absolute pressure limited to 5.000000e+10 in 263128 cells on zone 900 

 turbulent viscosity limited to viscosity ratio of 1.000000e+05 in 255093 cells 
   292  2.4409e+10  1.8443e-02  4.3688e-02  4.7657e-02  2.0280e-02  9.8947e-01  4.9278e-01  1:34:36  208

 absolute pressure limited to 5.000000e+10 in 263119 cells on zone 900 

 turbulent viscosity limited to viscosity ratio of 1.000000e+05 in 255186 cells 
   293  2.4274e+10  1.7735e-02  4.2709e-02  4.6986e-02  2.1785e-02  9.9479e-01  4.9521e-01  1:33:12  207

 absolute pressure limited to 5.000000e+10 in 263103 cells on zone 900 

 turbulent viscosity limited to viscosity ratio of 1.000000e+05 in 254933 cells 
   294  2.4742e+10  1.7386e-02  4.1154e-02  4.6561e-02  2.2130e-02  9.9188e-01  4.9372e-01  1:34:07  206

 absolute pressure limited to 5.000000e+10 in 263106 cells on zone 900 

 turbulent viscosity limited to viscosity ratio of 1.000000e+05 in 255202 cells 
   295  2.3939e+10  1.7855e-02  4.2145e-02  4.5800e-02  2.3165e-02  9.9234e-01  4.9362e-01  1:32:36  205

 absolute pressure limited to 5.000000e+10 in 263109 cells on zone 900 

 turbulent viscosity limited to viscosity ratio of 1.000000e+05 in 255329 cells 
   296  2.3570e+10  1.8708e-02  4.4477e-02  4.6575e-02  2.4088e-02  9.9793e-01  4.9761e-01  1:34:21  204

 absolute pressure limited to 5.000000e+10 in 263108 cells on zone 900 

 turbulent viscosity limited to viscosity ratio of 1.000000e+05 in 255512 cells 
   297  2.4119e+10  1.8979e-02  4.5665e-02  4.6593e-02  2.2971e-02  9.9903e-01  4.9919e-01  1:33:53  203

 absolute pressure limited to 5.000000e+10 in 263086 cells on zone 900 

 turbulent viscosity limited to viscosity ratio of 1.000000e+05 in 255329 cells 

  iter  continuity  x-velocity  y-velocity  z-velocity      energy           k       omega     time/iter
   298  2.3471e+10  1.8424e-02  4.3845e-02  4.5158e-02  2.3030e-02  9.9853e-01  4.9908e-01  1:33:32  202

 absolute pressure limited to 5.000000e+10 in 263105 cells on zone 900 

 turbulent viscosity limited to viscosity ratio of 1.000000e+05 in 255459 cells 
   299  2.3402e+10  1.9033e-02  4.4865e-02  4.3557e-02  2.5160e-02  9.9454e-01  4.9781e-01  1:33:05  201

 absolute pressure limited to 5.000000e+10 in 263080 cells on zone 900 

 turbulent viscosity limited to viscosity ratio of 1.000000e+05 in 255414 cells 
   300  2.3318e+10  1.8792e-02  4.5319e-02  4.2907e-02  2.3089e-02  9.9812e-01  4.9819e-01  1:32:51  200

 absolute pressure limited to 5.000000e+10 in 263123 cells on zone 900 

 turbulent viscosity limited to viscosity ratio of 1.000000e+05 in 255386 cells 
   301  2.3367e+10  1.8257e-02  4.4080e-02  4.0875e-02  2.2435e-02  9.9415e-01  4.9642e-01  1:31:16  199

 absolute pressure limited to 5.000000e+10 in 263110 cells on zone 900 

 turbulent viscosity limited to viscosity ratio of 1.000000e+05 in 255324 cells 
   302  2.2729e+10  1.8012e-02  4.3003e-02  3.9384e-02  2.2106e-02  9.8467e-01  4.9341e-01  1:31:07  198

 absolute pressure limited to 5.000000e+10 in 263104 cells on zone 900 

 turbulent viscosity limited to viscosity ratio of 1.000000e+05 in 255304 cells 
   303  2.1426e+10  1.7686e-02  4.2692e-02  3.9431e-02  2.2958e-02  9.8121e-01  4.9010e-01  1:29:41  197

 absolute pressure limited to 5.000000e+10 in 263111 cells on zone 900 

 turbulent viscosity limited to viscosity ratio of 1.000000e+05 in 255335 cells 
   304  2.0883e+10  1.8276e-02  4.2773e-02  3.8603e-02  2.3456e-02  9.9425e-01  4.9404e-01  1:29:45  196

 absolute pressure limited to 5.000000e+10 in 263097 cells on zone 900 

 turbulent viscosity limited to viscosity ratio of 1.000000e+05 in 255569 cells 
   305  2.0053e+10  1.9254e-02  4.4731e-02  3.9242e-02  2.2997e-02  9.9736e-01  4.9711e-01  1:28:49  195

 absolute pressure limited to 5.000000e+10 in 263082 cells on zone 900 

 turbulent viscosity limited to viscosity ratio of 1.000000e+05 in 255219 cells 
   306  1.8998e+10  1.8391e-02  4.2884e-02  4.0056e-02  2.6071e-02  9.9329e-01  4.9560e-01  1:28:22  194

 absolute pressure limited to 5.000000e+10 in 263107 cells on zone 900 

 turbulent viscosity limited to viscosity ratio of 1.000000e+05 in 255604 cells 
   307  1.8786e+10  1.9862e-02  4.5844e-02  4.1625e-02  2.3352e-02  9.8055e-01  4.9194e-01  1:28:28  193

 absolute pressure limited to 5.000000e+10 in 263107 cells on zone 900 

 turbulent viscosity limited to viscosity ratio of 1.000000e+05 in 255267 cells 
   308  1.8647e+10  1.8632e-02  4.3475e-02  4.3515e-02  2.3532e-02  9.8596e-01  4.8839e-01  1:29:09  192

 absolute pressure limited to 5.000000e+10 in 263103 cells on zone 900 

 turbulent viscosity limited to viscosity ratio of 1.000000e+05 in 255591 cells 

  iter  continuity  x-velocity  y-velocity  z-velocity      energy           k       omega     time/iter
   309  1.7882e+10  1.9134e-02  4.5142e-02  4.3000e-02  2.3703e-02  9.8709e-01  4.8796e-01  1:29:02  191

 absolute pressure limited to 5.000000e+10 in 263114 cells on zone 900 

 turbulent viscosity limited to viscosity ratio of 1.000000e+05 in 255257 cells 
   310  1.7698e+10  1.9327e-02  4.5496e-02  4.3113e-02  2.4215e-02  9.8346e-01  4.8391e-01  1:28:31  190

 absolute pressure limited to 5.000000e+10 in 263102 cells on zone 900 

 turbulent viscosity limited to viscosity ratio of 1.000000e+05 in 255419 cells 
   311  1.7450e+10  1.9656e-02  4.5455e-02  4.2695e-02  2.3713e-02  9.9017e-01  4.8797e-01  1:27:22  189

 absolute pressure limited to 5.000000e+10 in 263117 cells on zone 900 

 turbulent viscosity limited to viscosity ratio of 1.000000e+05 in 255091 cells 
   312  1.7076e+10  1.9825e-02  4.5563e-02  4.2384e-02  2.3973e-02  9.8309e-01  4.8384e-01  1:28:05  188

 absolute pressure limited to 5.000000e+10 in 263082 cells on zone 900 

 turbulent viscosity limited to viscosity ratio of 1.000000e+05 in 255198 cells 
   313  1.6692e+10  2.0626e-02  4.7874e-02  4.3299e-02  2.3342e-02  9.7928e-01  4.8702e-01  1:28:44  187

 absolute pressure limited to 5.000000e+10 in 263097 cells on zone 900 

 turbulent viscosity limited to viscosity ratio of 1.000000e+05 in 255053 cells 
   314  1.5927e+10  2.0455e-02  4.7832e-02  4.6258e-02  2.5254e-02  9.9821e-01  4.9838e-01  1:27:58  186

 absolute pressure limited to 5.000000e+10 in 263128 cells on zone 900 

 turbulent viscosity limited to viscosity ratio of 1.000000e+05 in 255364 cells 
   315  1.6263e+10  2.1098e-02  4.7530e-02  4.8856e-02  2.4889e-02  9.9319e-01  4.9677e-01  1:28:46  185

 absolute pressure limited to 5.000000e+10 in 263137 cells on zone 900 

 turbulent viscosity limited to viscosity ratio of 1.000000e+05 in 255245 cells 
   316  1.7191e+10  2.0561e-02  4.6914e-02  4.8671e-02  2.3696e-02  9.9167e-01  4.9538e-01  1:27:20  184

 absolute pressure limited to 5.000000e+10 in 263103 cells on zone 900 

 turbulent viscosity limited to viscosity ratio of 1.000000e+05 in 255387 cells 
   317  1.7143e+10  2.0151e-02  4.6463e-02  4.7370e-02  2.2602e-02  9.9938e-01  4.9958e-01  1:27:31  183

 absolute pressure limited to 5.000000e+10 in 263134 cells on zone 900 

 turbulent viscosity limited to viscosity ratio of 1.000000e+05 in 255304 cells 
   318  1.6685e+10  1.9671e-02  4.5938e-02  4.7360e-02  2.1904e-02  9.9635e-01  4.9896e-01  1:25:51  182

 absolute pressure limited to 5.000000e+10 in 263149 cells on zone 900 

 turbulent viscosity limited to viscosity ratio of 1.000000e+05 in 255389 cells 
   319  1.7185e+10  1.9368e-02  4.4315e-02  4.7478e-02  2.2665e-02  9.8680e-01  4.9789e-01  1:24:30  181

 absolute pressure limited to 5.000000e+10 in 263114 cells on zone 900 

 turbulent viscosity limited to viscosity ratio of 1.000000e+05 in 255132 cells 

  iter  continuity  x-velocity  y-velocity  z-velocity      energy           k       omega     time/iter
   320  1.7164e+10  1.9617e-02  4.5733e-02  4.6523e-02  2.2285e-02  9.9182e-01  4.9622e-01  1:23:24  180

 absolute pressure limited to 5.000000e+10 in 263135 cells on zone 900 

 turbulent viscosity limited to viscosity ratio of 1.000000e+05 in 255404 cells 
   321  1.6874e+10  1.8750e-02  4.3241e-02  4.4744e-02  2.5311e-02  9.9603e-01  4.9628e-01  1:23:57  179

 absolute pressure limited to 5.000000e+10 in 263134 cells on zone 900 

 turbulent viscosity limited to viscosity ratio of 1.000000e+05 in 255174 cells 
   322  1.6873e+10  2.0685e-02  4.7185e-02  4.5237e-02  2.3100e-02  9.9078e-01  4.9377e-01  1:23:27  178

 absolute pressure limited to 5.000000e+10 in 263094 cells on zone 900 

 turbulent viscosity limited to viscosity ratio of 1.000000e+05 in 255389 cells 
   323  1.6377e+10  1.9763e-02  4.5105e-02  4.6843e-02  2.1892e-02  9.9667e-01  4.9714e-01  1:23:17  177

 absolute pressure limited to 5.000000e+10 in 263105 cells on zone 900 

 turbulent viscosity limited to viscosity ratio of 1.000000e+05 in 255137 cells 
   324  1.6728e+10  2.0616e-02  4.7115e-02  4.9857e-02  2.2081e-02  9.9362e-01  4.9583e-01  1:22:51  176

 absolute pressure limited to 5.000000e+10 in 263105 cells on zone 900 

 turbulent viscosity limited to viscosity ratio of 1.000000e+05 in 255342 cells 
   325  1.7272e+10  2.0127e-02  4.5539e-02  4.9783e-02  2.2575e-02  9.9212e-01  4.9412e-01  1:21:12  175

 absolute pressure limited to 5.000000e+10 in 263114 cells on zone 900 

 turbulent viscosity limited to viscosity ratio of 1.000000e+05 in 255084 cells 
   326  1.6989e+10  2.0058e-02  4.5904e-02  4.9537e-02  2.4506e-02  9.9499e-01  4.9541e-01  1:20:38  174

 absolute pressure limited to 5.000000e+10 in 263112 cells on zone 900 

 turbulent viscosity limited to viscosity ratio of 1.000000e+05 in 255230 cells 
   327  1.7350e+10  1.9328e-02  4.4974e-02  4.8977e-02  2.5495e-02  9.9750e-01  4.9712e-01  1:19:35  173

 absolute pressure limited to 5.000000e+10 in 263110 cells on zone 900 

 turbulent viscosity limited to viscosity ratio of 1.000000e+05 in 254922 cells 
   328  1.7432e+10  2.0069e-02  4.6497e-02  4.8721e-02  2.3758e-02  9.9875e-01  4.9873e-01  1:19:52  172

 absolute pressure limited to 5.000000e+10 in 263130 cells on zone 900 

 turbulent viscosity limited to viscosity ratio of 1.000000e+05 in 254781 cells 
   329  1.7735e+10  1.9052e-02  4.4869e-02  4.7773e-02  2.3215e-02  9.9871e-01  4.9893e-01  1:19:52  171

 absolute pressure limited to 5.000000e+10 in 263091 cells on zone 900 

 turbulent viscosity limited to viscosity ratio of 1.000000e+05 in 254880 cells 
   330  1.7573e+10  1.9671e-02  4.6660e-02  4.6149e-02  2.2269e-02  9.9411e-01  4.9750e-01  1:20:24  170

 absolute pressure limited to 5.000000e+10 in 263094 cells on zone 900 

 turbulent viscosity limited to viscosity ratio of 1.000000e+05 in 254819 cells 

  iter  continuity  x-velocity  y-velocity  z-velocity      energy           k       omega     time/iter
   331  1.6888e+10  1.9043e-02  4.4263e-02  4.5024e-02  2.4922e-02  9.8035e-01  4.9547e-01  1:20:05  169

 absolute pressure limited to 5.000000e+10 in 263131 cells on zone 900 

 turbulent viscosity limited to viscosity ratio of 1.000000e+05 in 255013 cells 
   332  1.7121e+10  2.0611e-02  4.6895e-02  4.5961e-02  2.3193e-02  9.9453e-01  4.9552e-01  1:20:10  168

 absolute pressure limited to 5.000000e+10 in 263121 cells on zone 900 

 turbulent viscosity limited to viscosity ratio of 1.000000e+05 in 254787 cells 
   333  1.7510e+10  2.0225e-02  4.6726e-02  4.8656e-02  2.2901e-02  9.9202e-01  4.9412e-01  1:19:37  167

 absolute pressure limited to 5.000000e+10 in 263110 cells on zone 900 

 turbulent viscosity limited to viscosity ratio of 1.000000e+05 in 255041 cells 
   334  1.7143e+10  2.0123e-02  4.6423e-02  4.9266e-02  2.2762e-02  9.8658e-01  4.9184e-01  1:17:50  166

 absolute pressure limited to 5.000000e+10 in 263109 cells on zone 900 

 turbulent viscosity limited to viscosity ratio of 1.000000e+05 in 254617 cells 
   335  1.6924e+10  1.9921e-02  4.6620e-02  4.9860e-02  2.2573e-02  9.9463e-01  4.9515e-01  1:17:19  165

 absolute pressure limited to 5.000000e+10 in 263105 cells on zone 900 

 turbulent viscosity limited to viscosity ratio of 1.000000e+05 in 254909 cells 
   336  1.6820e+10  2.0025e-02  4.6530e-02  4.9739e-02  2.2500e-02  9.9723e-01  4.9691e-01  1:16:56  164

 absolute pressure limited to 5.000000e+10 in 263103 cells on zone 900 

 turbulent viscosity limited to viscosity ratio of 1.000000e+05 in 254698 cells 
   337  1.6559e+10  2.0353e-02  4.6738e-02  4.7951e-02  2.3090e-02  9.9775e-01  4.9788e-01  1:16:30  163

 absolute pressure limited to 5.000000e+10 in 263106 cells on zone 900 

 turbulent viscosity limited to viscosity ratio of 1.000000e+05 in 255076 cells 
   338  1.6666e+10  2.0034e-02  4.6554e-02  4.8388e-02  2.3365e-02  9.9475e-01  4.9654e-01  1:17:00  162

 absolute pressure limited to 5.000000e+10 in 263107 cells on zone 900 

 turbulent viscosity limited to viscosity ratio of 1.000000e+05 in 254809 cells 
   339  1.6682e+10  2.0140e-02  4.6183e-02  4.9831e-02  2.4249e-02  9.8967e-01  4.9464e-01  1:15:56  161

 absolute pressure limited to 5.000000e+10 in 263107 cells on zone 900 

 turbulent viscosity limited to viscosity ratio of 1.000000e+05 in 255026 cells 
   340  1.7006e+10  2.0449e-02  4.7224e-02  4.9970e-02  2.2669e-02  9.9518e-01  4.9597e-01  1:16:01  160

 absolute pressure limited to 5.000000e+10 in 263119 cells on zone 900 

 turbulent viscosity limited to viscosity ratio of 1.000000e+05 in 254680 cells 
   341  1.7507e+10  1.9486e-02  4.5761e-02  5.0131e-02  2.2206e-02  9.8759e-01  4.9274e-01  1:15:07  159

 absolute pressure limited to 5.000000e+10 in 263120 cells on zone 900 

 turbulent viscosity limited to viscosity ratio of 1.000000e+05 in 254857 cells 

  iter  continuity  x-velocity  y-velocity  z-velocity      energy           k       omega     time/iter
   342  1.7469e+10  1.8957e-02  4.4647e-02  4.8246e-02  2.2437e-02  9.9213e-01  4.9365e-01  1:14:25  158

 absolute pressure limited to 5.000000e+10 in 263095 cells on zone 900 

 turbulent viscosity limited to viscosity ratio of 1.000000e+05 in 254548 cells 
   343  1.6876e+10  1.9008e-02  4.4055e-02  4.5501e-02  2.2067e-02  9.9929e-01  4.9921e-01  1:14:49  157

 absolute pressure limited to 5.000000e+10 in 263113 cells on zone 900 

 turbulent viscosity limited to viscosity ratio of 1.000000e+05 in 254778 cells 
   344  1.6555e+10  1.8180e-02  4.1740e-02  4.3210e-02  2.2205e-02  9.9652e-01  4.9819e-01  1:14:04  156

 absolute pressure limited to 5.000000e+10 in 263118 cells on zone 900 

 turbulent viscosity limited to viscosity ratio of 1.000000e+05 in 254321 cells 
   345  1.6852e+10  1.9174e-02  4.3596e-02  4.3349e-02  2.1899e-02  9.8755e-01  4.9607e-01  1:13:54  155

 absolute pressure limited to 5.000000e+10 in 263111 cells on zone 900 

 turbulent viscosity limited to viscosity ratio of 1.000000e+05 in 254582 cells 
   346  1.6332e+10  1.8624e-02  4.3075e-02  4.3175e-02  2.1962e-02  9.9027e-01  4.9449e-01  1:12:06  154

 absolute pressure limited to 5.000000e+10 in 263101 cells on zone 900 

 turbulent viscosity limited to viscosity ratio of 1.000000e+05 in 254483 cells 
   347  1.6004e+10  1.8574e-02  4.2628e-02  4.3841e-02  2.4253e-02  9.8691e-01  4.9208e-01  1:11:17  153

 absolute pressure limited to 5.000000e+10 in 263103 cells on zone 900 

 turbulent viscosity limited to viscosity ratio of 1.000000e+05 in 254672 cells 
   348  1.6758e+10  1.9907e-02  4.5124e-02  4.6276e-02  2.1516e-02  9.8989e-01  4.9173e-01  1:10:41  152

 absolute pressure limited to 5.000000e+10 in 263144 cells on zone 900 

 turbulent viscosity limited to viscosity ratio of 1.000000e+05 in 254440 cells 
   349  1.7113e+10  1.9460e-02  4.4086e-02  4.6292e-02  2.0199e-02  9.9645e-01  4.9614e-01  1:10:11  151

 absolute pressure limited to 5.000000e+10 in 263127 cells on zone 900 

 turbulent viscosity limited to viscosity ratio of 1.000000e+05 in 254703 cells 
   350  1.6916e+10  1.9276e-02  4.3838e-02  4.6097e-02  1.9588e-02  9.9743e-01  4.9748e-01  1:10:16  150

 absolute pressure limited to 5.000000e+10 in 263105 cells on zone 900 

 turbulent viscosity limited to viscosity ratio of 1.000000e+05 in 254349 cells 
   351  1.6710e+10  1.9638e-02  4.4759e-02  4.5317e-02  1.9603e-02  9.9269e-01  4.9491e-01  1:10:24  149

 absolute pressure limited to 5.000000e+10 in 263106 cells on zone 900 

 turbulent viscosity limited to viscosity ratio of 1.000000e+05 in 254717 cells 
   352  1.6421e+10  1.8878e-02  4.3372e-02  4.4912e-02  1.9680e-02  9.8748e-01  4.9260e-01  1:10:22  148

 absolute pressure limited to 5.000000e+10 in 263121 cells on zone 900 

 turbulent viscosity limited to viscosity ratio of 1.000000e+05 in 254187 cells 

  iter  continuity  x-velocity  y-velocity  z-velocity      energy           k       omega     time/iter
   353  1.6656e+10  1.8369e-02  4.2352e-02  4.6045e-02  2.0804e-02  9.9236e-01  4.9462e-01  1:10:20  147

 absolute pressure limited to 5.000000e+10 in 263090 cells on zone 900 

 turbulent viscosity limited to viscosity ratio of 1.000000e+05 in 254588 cells 
   354  1.6377e+10  1.8701e-02  4.2733e-02  4.7528e-02  2.0797e-02  9.8847e-01  4.9319e-01  1:10:06  146

 absolute pressure limited to 5.000000e+10 in 263117 cells on zone 900 

 turbulent viscosity limited to viscosity ratio of 1.000000e+05 in 254187 cells 
   355  1.6367e+10  1.8540e-02  4.1622e-02  4.7418e-02  2.2083e-02  9.9602e-01  4.9598e-01  1:08:11  145

 absolute pressure limited to 5.000000e+10 in 263128 cells on zone 900 

 turbulent viscosity limited to viscosity ratio of 1.000000e+05 in 254604 cells 
   356  1.6682e+10  2.0383e-02  4.5806e-02  4.6677e-02  2.0520e-02  9.9210e-01  4.9457e-01  1:07:17  144

 absolute pressure limited to 5.000000e+10 in 263110 cells on zone 900 

 turbulent viscosity limited to viscosity ratio of 1.000000e+05 in 254223 cells 
   357  1.6896e+10  1.9820e-02  4.5815e-02  4.6819e-02  2.0962e-02  9.8594e-01  4.9088e-01  1:05:57  143

 absolute pressure limited to 5.000000e+10 in 263104 cells on zone 900 

 turbulent viscosity limited to viscosity ratio of 1.000000e+05 in 254592 cells 
   358  1.6739e+10  1.9975e-02  4.5905e-02  4.6664e-02  2.1360e-02  9.8613e-01  4.8949e-01  1:05:25  142

 absolute pressure limited to 5.000000e+10 in 263118 cells on zone 900 

 turbulent viscosity limited to viscosity ratio of 1.000000e+05 in 254518 cells 
   359  1.7043e+10  2.0775e-02  4.6980e-02  4.5320e-02  2.1811e-02  9.9189e-01  4.9248e-01  1:04:41  141

 absolute pressure limited to 5.000000e+10 in 263125 cells on zone 900 

 turbulent viscosity limited to viscosity ratio of 1.000000e+05 in 254750 cells 
   360  1.7084e+10  2.0334e-02  4.7701e-02  4.5187e-02  2.1380e-02  9.9918e-01  4.9908e-01  1:04:57  140

 absolute pressure limited to 5.000000e+10 in 263116 cells on zone 900 

 turbulent viscosity limited to viscosity ratio of 1.000000e+05 in 254593 cells 
   361  1.7127e+10  1.9730e-02  4.5650e-02  4.7747e-02  2.2755e-02  9.9643e-01  4.9783e-01  1:04:21  139

 absolute pressure limited to 5.000000e+10 in 263143 cells on zone 900 

 turbulent viscosity limited to viscosity ratio of 1.000000e+05 in 254733 cells 
   362  1.7443e+10  2.0357e-02  4.6216e-02  4.7549e-02  2.1919e-02  9.9750e-01  4.9809e-01  1:04:28  138

 absolute pressure limited to 5.000000e+10 in 263120 cells on zone 900 

 turbulent viscosity limited to viscosity ratio of 1.000000e+05 in 254720 cells 
   363  1.7961e+10  2.0042e-02  4.6672e-02  4.8835e-02  2.1570e-02  9.9306e-01  4.9648e-01  1:03:38  137

 absolute pressure limited to 5.000000e+10 in 263129 cells on zone 900 

 turbulent viscosity limited to viscosity ratio of 1.000000e+05 in 254610 cells 

  iter  continuity  x-velocity  y-velocity  z-velocity      energy           k       omega     time/iter
   364  1.8369e+10  1.9312e-02  4.5875e-02  4.7100e-02  2.2966e-02  9.9086e-01  4.9464e-01  1:02:50  136

 absolute pressure limited to 5.000000e+10 in 263114 cells on zone 900 

 turbulent viscosity limited to viscosity ratio of 1.000000e+05 in 254659 cells 
   365  1.8323e+10  2.0192e-02  4.6748e-02  4.6949e-02  2.2058e-02  9.9701e-01  4.9734e-01  1:02:01  135

 absolute pressure limited to 5.000000e+10 in 263120 cells on zone 900 

 turbulent viscosity limited to viscosity ratio of 1.000000e+05 in 254706 cells 
   366  1.8861e+10  2.0058e-02  4.6154e-02  4.8799e-02  2.0615e-02  9.9560e-01  4.9683e-01  1:01:16  134

 absolute pressure limited to 5.000000e+10 in 263116 cells on zone 900 

 turbulent viscosity limited to viscosity ratio of 1.000000e+05 in 254771 cells 
   367  1.9255e+10  1.9798e-02  4.6201e-02  4.8695e-02  2.1250e-02  9.9350e-01  4.9558e-01  1:00:41  133

 absolute pressure limited to 5.000000e+10 in 263128 cells on zone 900 

 turbulent viscosity limited to viscosity ratio of 1.000000e+05 in 254861 cells 
   368  1.9228e+10  1.8857e-02  4.3749e-02  4.9553e-02  2.1798e-02  9.9834e-01  4.9844e-01  1:01:07  132

 absolute pressure limited to 5.000000e+10 in 263137 cells on zone 900 

 turbulent viscosity limited to viscosity ratio of 1.000000e+05 in 254862 cells 
   369  1.9601e+10  1.9452e-02  4.4445e-02  4.9234e-02  2.0255e-02  9.9216e-01  4.9648e-01  1:01:25  131

 absolute pressure limited to 5.000000e+10 in 263123 cells on zone 900 

 turbulent viscosity limited to viscosity ratio of 1.000000e+05 in 254844 cells 
   370  1.9764e+10  1.8695e-02  4.4106e-02  4.9801e-02  2.1343e-02  9.8294e-01  4.9287e-01  1:00:34  130

 absolute pressure limited to 5.000000e+10 in 263108 cells on zone 900 

 turbulent viscosity limited to viscosity ratio of 1.000000e+05 in 254910 cells 
   371  1.9639e+10  1.8814e-02  4.4156e-02  4.9137e-02  2.2312e-02  9.8730e-01  4.9179e-01  0:59:51  129

 absolute pressure limited to 5.000000e+10 in 263112 cells on zone 900 

 turbulent viscosity limited to viscosity ratio of 1.000000e+05 in 254905 cells 
   372  2.0318e+10  1.8653e-02  4.4276e-02  5.0133e-02  2.2263e-02  9.9954e-01  4.9953e-01  0:59:39  128

 absolute pressure limited to 5.000000e+10 in 263125 cells on zone 900 

 turbulent viscosity limited to viscosity ratio of 1.000000e+05 in 254904 cells 
   373  2.1053e+10  1.9326e-02  4.4271e-02  5.0450e-02  2.1848e-02  9.9790e-01  4.9897e-01  0:59:09  127

 absolute pressure limited to 5.000000e+10 in 263110 cells on zone 900 

 turbulent viscosity limited to viscosity ratio of 1.000000e+05 in 254926 cells 
   374  2.0865e+10  1.9151e-02  4.4942e-02  4.9841e-02  2.1649e-02  9.9251e-01  4.9773e-01  0:58:35  126

 absolute pressure limited to 5.000000e+10 in 263108 cells on zone 900 

 turbulent viscosity limited to viscosity ratio of 1.000000e+05 in 255028 cells 

  iter  continuity  x-velocity  y-velocity  z-velocity      energy           k       omega     time/iter
   375  2.1257e+10  1.9225e-02  4.5134e-02  5.0368e-02  2.2584e-02  9.8391e-01  4.9529e-01  0:57:18  125
 temperature limited to 5.000000e+03 in 1 cells on zone 900 in domain 1
 
 absolute pressure limited to 5.000000e+10 in 263117 cells on zone 900 

 turbulent viscosity limited to viscosity ratio of 1.000000e+05 in 255093 cells 
   376  2.2362e+10  1.8938e-02  4.4633e-02  5.0265e-02  2.3048e-02  9.9751e-01  4.9764e-01  0:57:06  124
 temperature limited to 5.000000e+03 in 4 cells on zone 900 in domain 1
 
 absolute pressure limited to 5.000000e+10 in 263114 cells on zone 900 

 turbulent viscosity limited to viscosity ratio of 1.000000e+05 in 255170 cells 
   377  2.3199e+10  1.8865e-02  4.4267e-02  4.9408e-02  2.3832e-02  9.9332e-01  4.9563e-01  0:57:02  123

 absolute pressure limited to 5.000000e+10 in 263128 cells on zone 900 

 turbulent viscosity limited to viscosity ratio of 1.000000e+05 in 255086 cells 
   378  2.3802e+10  1.8939e-02  4.5752e-02  4.9848e-02  2.1873e-02  9.8322e-01  4.9164e-01  0:57:00  122

 absolute pressure limited to 5.000000e+10 in 263096 cells on zone 900 

 turbulent viscosity limited to viscosity ratio of 1.000000e+05 in 255141 cells 
   379  2.4243e+10  1.8518e-02  4.4147e-02  5.0700e-02  2.0525e-02  9.9279e-01  4.9374e-01  0:56:45  121

 absolute pressure limited to 5.000000e+10 in 263128 cells on zone 900 

 turbulent viscosity limited to viscosity ratio of 1.000000e+05 in 255064 cells 
   380  2.5400e+10  1.8604e-02  4.4425e-02  5.0343e-02  2.0504e-02  9.8413e-01  4.8960e-01  0:55:36  120

 absolute pressure limited to 5.000000e+10 in 263123 cells on zone 900 

 turbulent viscosity limited to viscosity ratio of 1.000000e+05 in 255089 cells 
   381  2.6176e+10  1.8672e-02  4.4959e-02  4.9678e-02  2.0067e-02  9.7654e-01  4.8452e-01  0:55:28  119

 absolute pressure limited to 5.000000e+10 in 263125 cells on zone 900 

 turbulent viscosity limited to viscosity ratio of 1.000000e+05 in 254990 cells 
   382  2.5549e+10  1.8060e-02  4.3511e-02  4.8747e-02  2.0646e-02  9.7633e-01  4.8352e-01  0:54:23  118
 temperature limited to 5.000000e+03 in 8 cells on zone 900 in domain 1
 
 absolute pressure limited to 5.000000e+10 in 263118 cells on zone 900 

 turbulent viscosity limited to viscosity ratio of 1.000000e+05 in 254947 cells 
   383  2.5871e+10  1.9123e-02  4.5458e-02  4.9135e-02  2.0499e-02  9.9283e-01  4.9329e-01  0:53:26  117

 absolute pressure limited to 5.000000e+10 in 263116 cells on zone 900 

 turbulent viscosity limited to viscosity ratio of 1.000000e+05 in 254890 cells 
   384  2.6323e+10  1.8308e-02  4.3434e-02  4.8635e-02  2.2410e-02  9.9644e-01  4.9656e-01  0:53:23  116

 absolute pressure limited to 5.000000e+10 in 263098 cells on zone 900 

 turbulent viscosity limited to viscosity ratio of 1.000000e+05 in 254901 cells 
   385  2.5406e+10  1.9183e-02  4.4843e-02  5.0128e-02  2.2740e-02  9.9780e-01  4.9825e-01  0:53:21  115
 temperature limited to 5.000000e+03 in 52 cells on zone 900 in domain 1
 
 absolute pressure limited to 5.000000e+10 in 263112 cells on zone 900 

 turbulent viscosity limited to viscosity ratio of 1.000000e+05 in 254968 cells 

  iter  continuity  x-velocity  y-velocity  z-velocity      energy           k       omega     time/iter
   386  2.6839e+10  1.8885e-02  4.4278e-02  5.1696e-02  2.3180e-02  9.9889e-01  4.9899e-01  0:53:21  114
 temperature limited to 5.000000e+03 in 7 cells on zone 900 in domain 1
 
 absolute pressure limited to 5.000000e+10 in 263108 cells on zone 900 

 turbulent viscosity limited to viscosity ratio of 1.000000e+05 in 254991 cells 
[...]

 turbulent viscosity limited to viscosity ratio of 1.000000e+05 in 253930 cells 
   416  4.2845e+10  1.7556e-02  4.3447e-02  4.0523e-02  2.6467e-02  9.6811e-01  4.8670e-01  0:40:22   84

 absolute pressure limited to 5.000000e+10 in 263087 cells on zone 900 

 turbulent viscosity limited to viscosity ratio of 1.000000e+05 in 254691 cells 
   417  4.0940e+10  1.7828e-02  4.3986e-02  3.9302e-02  2.8609e-02  9.8827e-01  4.8796e-01  0:39:35   83

 absolute pressure limited to 5.000000e+10 in 263091 cells on zone 900 

 turbulent viscosity limited to viscosity ratio of 1.000000e+05 in 253877 cells 
   418  3.9806e+10  1.8357e-02  4.5535e-02  4.0516e-02  2.8288e-02  9.9319e-01  4.9291e-01  0:38:26   82

 absolute pressure limited to 5.000000e+10 in 263081 cells on zone 900 

 turbulent viscosity limited to viscosity ratio of 1.000000e+05 in 254693 cells 

  iter  continuity  x-velocity  y-velocity  z-velocity      energy           k       omega     time/iter
   419  4.0674e+10  1.9067e-02  4.6586e-02  4.1716e-02  2.8482e-02  9.9586e-01  4.9571e-01  0:38:18   81

 absolute pressure limited to 5.000000e+10 in 263049 cells on zone 900 

 turbulent viscosity limited to viscosity ratio of 1.000000e+05 in 253788 cells 
   420  4.0169e+10  1.8643e-02  4.5903e-02  4.1372e-02  3.2866e-02  9.9832e-01  4.9803e-01  0:37:48   80

 absolute pressure limited to 5.000000e+10 in 263085 cells on zone 900 

 turbulent viscosity limited to viscosity ratio of 1.000000e+05 in 254693 cells 
   421  3.8636e+10  1.9335e-02  4.6840e-02  4.2516e-02  3.1132e-02  9.9650e-01  4.9731e-01  0:37:38   79

 absolute pressure limited to 5.000000e+10 in 263114 cells on zone 900 

 turbulent viscosity limited to viscosity ratio of 1.000000e+05 in 253912 cells 
   422  4.0775e+10  1.9629e-02  4.9210e-02  4.2580e-02  3.1199e-02  9.9752e-01  4.9748e-01  0:37:06   78

 absolute pressure limited to 5.000000e+10 in 263077 cells on zone 900 

 turbulent viscosity limited to viscosity ratio of 1.000000e+05 in 254703 cells 
   423  4.1142e+10  1.9652e-02  4.9448e-02  4.0447e-02  2.9083e-02  9.9074e-01  4.9438e-01  0:36:20   77

 absolute pressure limited to 5.000000e+10 in 263091 cells on zone 900 

 turbulent viscosity limited to viscosity ratio of 1.000000e+05 in 253781 cells 
   424  3.9779e+10  1.9576e-02  4.8157e-02  3.8570e-02  2.9963e-02  9.9292e-01  4.9395e-01  0:35:20   76

 absolute pressure limited to 5.000000e+10 in 263064 cells on zone 900 

 turbulent viscosity limited to viscosity ratio of 1.000000e+05 in 254701 cells 
   425  3.9142e+10  1.8842e-02  4.6074e-02  3.8217e-02  3.1570e-02  9.8815e-01  4.9092e-01  0:34:52   75

 absolute pressure limited to 5.000000e+10 in 263110 cells on zone 900 

 turbulent viscosity limited to viscosity ratio of 1.000000e+05 in 253642 cells 
   426  3.9683e+10  1.8486e-02  4.5252e-02  3.7590e-02  2.7847e-02  9.9538e-01  4.9533e-01  0:34:36   74

 absolute pressure limited to 5.000000e+10 in 263069 cells on zone 900 

 turbulent viscosity limited to viscosity ratio of 1.000000e+05 in 254519 cells 
   427  3.8691e+10  1.8349e-02  4.4780e-02  3.6842e-02  2.7646e-02  9.8965e-01  4.9161e-01  0:35:01   73

 absolute pressure limited to 5.000000e+10 in 263067 cells on zone 900 

 turbulent viscosity limited to viscosity ratio of 1.000000e+05 in 253737 cells 
   428  3.6553e+10  1.8407e-02  4.4617e-02  3.6112e-02  2.8268e-02  9.8510e-01  4.8959e-01  0:34:38   72

 absolute pressure limited to 5.000000e+10 in 263096 cells on zone 900 

 turbulent viscosity limited to viscosity ratio of 1.000000e+05 in 254516 cells 
   429  3.6064e+10  1.8728e-02  4.4998e-02  3.6597e-02  2.9715e-02  9.9829e-01  4.9827e-01  0:33:52   71

 absolute pressure limited to 5.000000e+10 in 263076 cells on zone 900 

 turbulent viscosity limited to viscosity ratio of 1.000000e+05 in 253821 cells 

  iter  continuity  x-velocity  y-velocity  z-velocity      energy           k       omega     time/iter
   430  3.5600e+10  1.8799e-02  4.5073e-02  3.8298e-02  2.7221e-02  9.9554e-01  4.9670e-01  0:33:09   70

 absolute pressure limited to 5.000000e+10 in 263060 cells on zone 900 

 turbulent viscosity limited to viscosity ratio of 1.000000e+05 in 254487 cells 
   431  3.4574e+10  1.8165e-02  4.3806e-02  3.8377e-02  2.8424e-02  9.8927e-01  4.9417e-01  0:32:52   69

 absolute pressure limited to 5.000000e+10 in 263087 cells on zone 900 

 turbulent viscosity limited to viscosity ratio of 1.000000e+05 in 253851 cells 
   432  3.4906e+10  1.9589e-02  4.4826e-02  3.7339e-02  2.9351e-02  9.8389e-01  4.9116e-01  0:31:58   68

 absolute pressure limited to 5.000000e+10 in 263102 cells on zone 900 

 turbulent viscosity limited to viscosity ratio of 1.000000e+05 in 254431 cells 
   433  3.5737e+10  1.9282e-02  4.6240e-02  3.9369e-02  3.0954e-02  9.9344e-01  4.9292e-01  0:31:50   67

 absolute pressure limited to 5.000000e+10 in 263064 cells on zone 900 

 turbulent viscosity limited to viscosity ratio of 1.000000e+05 in 253872 cells 
   434  3.4555e+10  1.8937e-02  4.5253e-02  4.0321e-02  2.9800e-02  9.7821e-01  4.8599e-01  0:31:13   66

 absolute pressure limited to 5.000000e+10 in 263086 cells on zone 900 

 turbulent viscosity limited to viscosity ratio of 1.000000e+05 in 254563 cells 
   435  3.4262e+10  1.8793e-02  4.5781e-02  4.0907e-02  3.0291e-02  9.8383e-01  4.8675e-01  0:31:08   65

 absolute pressure limited to 5.000000e+10 in 263067 cells on zone 900 

 turbulent viscosity limited to viscosity ratio of 1.000000e+05 in 254148 cells 
   436  3.4019e+10  2.0112e-02  4.6254e-02  4.1527e-02  2.9935e-02  9.9791e-01  4.9774e-01  0:30:49   64

 absolute pressure limited to 5.000000e+10 in 263088 cells on zone 900 

 turbulent viscosity limited to viscosity ratio of 1.000000e+05 in 254566 cells 
   437  3.3811e+10  2.0014e-02  4.7080e-02  4.2601e-02  3.0894e-02  9.9974e-01  4.9974e-01  0:30:19   63

 absolute pressure limited to 5.000000e+10 in 263097 cells on zone 900 

 turbulent viscosity limited to viscosity ratio of 1.000000e+05 in 254145 cells 
   438  3.5531e+10  2.0194e-02  4.7289e-02  4.1929e-02  3.1955e-02  9.9952e-01  4.9964e-01  0:29:53   62

 absolute pressure limited to 5.000000e+10 in 263069 cells on zone 900 

 turbulent viscosity limited to viscosity ratio of 1.000000e+05 in 254574 cells 
   439  3.4873e+10  1.9993e-02  4.8571e-02  4.0732e-02  3.1070e-02  9.9842e-01  4.9919e-01  0:29:15   61

 absolute pressure limited to 5.000000e+10 in 263097 cells on zone 900 

 turbulent viscosity limited to viscosity ratio of 1.000000e+05 in 254138 cells 
   440  3.5270e+10  2.0304e-02  4.7448e-02  3.9771e-02  3.2882e-02  9.9214e-01  4.9804e-01  0:28:36   60

 absolute pressure limited to 5.000000e+10 in 263082 cells on zone 900 

 turbulent viscosity limited to viscosity ratio of 1.000000e+05 in 254417 cells 

  iter  continuity  x-velocity  y-velocity  z-velocity      energy           k       omega     time/iter
   441  3.5269e+10  1.9451e-02  4.6441e-02  3.9385e-02  3.1309e-02  9.9389e-01  4.9651e-01  0:28:17   59

 absolute pressure limited to 5.000000e+10 in 263109 cells on zone 900 

 turbulent viscosity limited to viscosity ratio of 1.000000e+05 in 253892 cells 
   442  3.6070e+10  1.8849e-02  4.5116e-02  3.7758e-02  3.2067e-02  9.8633e-01  4.9307e-01  0:27:35   58

 absolute pressure limited to 5.000000e+10 in 263090 cells on zone 900 

 turbulent viscosity limited to viscosity ratio of 1.000000e+05 in 254200 cells 
   443  3.6556e+10  1.8516e-02  4.3810e-02  3.6641e-02  3.0342e-02  9.8975e-01  4.9258e-01  0:27:03   57

 absolute pressure limited to 5.000000e+10 in 263084 cells on zone 900 

 turbulent viscosity limited to viscosity ratio of 1.000000e+05 in 253550 cells 
   444  3.4383e+10  1.7861e-02  4.2038e-02  3.7768e-02  3.1308e-02  9.8781e-01  4.8971e-01  0:26:53   56

 absolute pressure limited to 5.000000e+10 in 263077 cells on zone 900 

 turbulent viscosity limited to viscosity ratio of 1.000000e+05 in 254326 cells 
   445  3.3908e+10  1.8555e-02  4.2499e-02  3.7245e-02  3.2066e-02  9.8082e-01  4.8789e-01  0:26:20   55

 absolute pressure limited to 5.000000e+10 in 263097 cells on zone 900 

 turbulent viscosity limited to viscosity ratio of 1.000000e+05 in 253614 cells 
   446  3.4508e+10  1.8900e-02  4.3723e-02  3.7972e-02  2.9465e-02  9.7226e-01  4.8520e-01  0:26:05   54

 absolute pressure limited to 5.000000e+10 in 263093 cells on zone 900 

 turbulent viscosity limited to viscosity ratio of 1.000000e+05 in 254366 cells 
   447  3.4804e+10  1.8829e-02  4.3905e-02  3.9019e-02  3.0946e-02  9.9515e-01  4.9375e-01  0:25:38   53

 absolute pressure limited to 5.000000e+10 in 263085 cells on zone 900 

 turbulent viscosity limited to viscosity ratio of 1.000000e+05 in 253630 cells 
   448  3.4988e+10  1.8892e-02  4.4340e-02  3.8374e-02  2.9869e-02  9.9685e-01  4.9656e-01  0:25:16   52

 absolute pressure limited to 5.000000e+10 in 263074 cells on zone 900 

 turbulent viscosity limited to viscosity ratio of 1.000000e+05 in 254436 cells 
   449  3.4112e+10  1.8740e-02  4.3895e-02  3.9102e-02  3.2768e-02  9.9772e-01  4.9756e-01  0:24:35   51

 absolute pressure limited to 5.000000e+10 in 263067 cells on zone 900 

 turbulent viscosity limited to viscosity ratio of 1.000000e+05 in 254028 cells 
   450  3.3911e+10  1.9221e-02  4.4053e-02  4.1260e-02  3.8044e-02  9.9900e-01  4.9895e-01  0:23:52   50

 absolute pressure limited to 5.000000e+10 in 263091 cells on zone 900 

 turbulent viscosity limited to viscosity ratio of 1.000000e+05 in 254468 cells 
   451  3.5435e+10  1.9539e-02  4.5062e-02  4.2791e-02  3.6815e-02  9.9780e-01  4.9841e-01  0:23:15   49

 absolute pressure limited to 5.000000e+10 in 263072 cells on zone 900 

 turbulent viscosity limited to viscosity ratio of 1.000000e+05 in 254146 cells 

  iter  continuity  x-velocity  y-velocity  z-velocity      energy           k       omega     time/iter
   452  3.7289e+10  1.9647e-02  4.6179e-02  4.3070e-02  3.7991e-02  9.9694e-01  4.9762e-01  0:23:20   48

 absolute pressure limited to 5.000000e+10 in 263085 cells on zone 900 

 turbulent viscosity limited to viscosity ratio of 1.000000e+05 in 254530 cells 
   453  3.7819e+10  2.0483e-02  4.8238e-02  3.9702e-02  3.5257e-02  9.9605e-01  4.9689e-01  0:22:35   47

 absolute pressure limited to 5.000000e+10 in 263080 cells on zone 900 

 turbulent viscosity limited to viscosity ratio of 1.000000e+05 in 253888 cells 
   454  3.9482e+10  1.9489e-02  4.6516e-02  3.8730e-02  3.2314e-02  9.9760e-01  4.9760e-01  0:22:35   46

 absolute pressure limited to 5.000000e+10 in 263080 cells on zone 900 

 turbulent viscosity limited to viscosity ratio of 1.000000e+05 in 254550 cells 
   455  4.0620e+10  1.8715e-02  4.4774e-02  3.6511e-02  3.4194e-02  9.9683e-01  4.9717e-01  0:22:07   45

 absolute pressure limited to 5.000000e+10 in 263063 cells on zone 900 

 turbulent viscosity limited to viscosity ratio of 1.000000e+05 in 253855 cells 
   456  3.9640e+10  1.8741e-02  4.3993e-02  3.5028e-02  3.4471e-02  9.8976e-01  4.9392e-01  0:21:05   44

 absolute pressure limited to 5.000000e+10 in 263083 cells on zone 900 

 turbulent viscosity limited to viscosity ratio of 1.000000e+05 in 254352 cells 
   457  3.9398e+10  1.8541e-02  4.2949e-02  3.5111e-02  3.4452e-02  9.8374e-01  4.9006e-01  0:20:44   43

 absolute pressure limited to 5.000000e+10 in 263057 cells on zone 900 

 turbulent viscosity limited to viscosity ratio of 1.000000e+05 in 253964 cells 
   458  4.0430e+10  1.8022e-02  4.1409e-02  3.5861e-02  3.3016e-02  9.9747e-01  4.9797e-01  0:20:17   42

 absolute pressure limited to 5.000000e+10 in 263085 cells on zone 900 

 turbulent viscosity limited to viscosity ratio of 1.000000e+05 in 254230 cells 
   459  4.2140e+10  1.7592e-02  4.1642e-02  3.8426e-02  3.3057e-02  9.9459e-01  4.9662e-01  0:19:23   41

 absolute pressure limited to 5.000000e+10 in 263070 cells on zone 900 

 turbulent viscosity limited to viscosity ratio of 1.000000e+05 in 254191 cells 
   460  4.2023e+10  1.7568e-02  4.1427e-02  3.7929e-02  3.4712e-02  9.9199e-01  4.9462e-01  0:19:05   40

 absolute pressure limited to 5.000000e+10 in 263074 cells on zone 900 

 turbulent viscosity limited to viscosity ratio of 1.000000e+05 in 254342 cells 
   461  4.2118e+10  1.7790e-02  4.0480e-02  3.9299e-02  3.6619e-02  9.9750e-01  4.9732e-01  0:18:31   39

 absolute pressure limited to 5.000000e+10 in 263055 cells on zone 900 

 turbulent viscosity limited to viscosity ratio of 1.000000e+05 in 254176 cells 
   462  4.4187e+10  1.7775e-02  4.1423e-02  4.0104e-02  3.4221e-02  9.9647e-01  4.9691e-01  0:18:10   38
 temperature limited to 5.000000e+03 in 1 cells on zone 900 in domain 1
 
 absolute pressure limited to 5.000000e+10 in 263067 cells on zone 900 

 turbulent viscosity limited to viscosity ratio of 1.000000e+05 in 254363 cells 

  iter  continuity  x-velocity  y-velocity  z-velocity      energy           k       omega     time/iter
   463  4.3914e+10  1.7405e-02  4.1704e-02  4.0003e-02  3.3780e-02  9.9169e-01  4.9482e-01  0:17:57   37
 temperature limited to 5.000000e+03 in 6 cells on zone 900 in domain 1
 
 absolute pressure limited to 5.000000e+10 in 263080 cells on zone 900 

 turbulent viscosity limited to viscosity ratio of 1.000000e+05 in 254096 cells 
   464  4.4971e+10  1.8169e-02  4.2800e-02  3.9085e-02  3.9264e-02  9.8921e-01  4.9244e-01  0:17:20   36

 absolute pressure limited to 5.000000e+10 in 263051 cells on zone 900 

 turbulent viscosity limited to viscosity ratio of 1.000000e+05 in 254258 cells 
   465  4.6083e+10  1.8093e-02  4.3758e-02  3.8887e-02  3.9478e-02  9.9177e-01  4.9302e-01  0:16:41   35
 temperature limited to 5.000000e+03 in 2 cells on zone 900 in domain 1
 
 absolute pressure limited to 5.000000e+10 in 263053 cells on zone 900 

 turbulent viscosity limited to viscosity ratio of 1.000000e+05 in 253814 cells 
   466  4.5437e+10  1.9107e-02  4.5536e-02  3.6366e-02  3.8232e-02  9.9670e-01  4.9746e-01  0:16:16   34

 absolute pressure limited to 5.000000e+10 in 263030 cells on zone 900 

 turbulent viscosity limited to viscosity ratio of 1.000000e+05 in 254201 cells 
   467  4.2786e+10  1.8990e-02  4.5088e-02  3.6431e-02  4.0709e-02  9.9449e-01  4.9631e-01  0:15:44   33

 absolute pressure limited to 5.000000e+10 in 263052 cells on zone 900 

 turbulent viscosity limited to viscosity ratio of 1.000000e+05 in 253698 cells 
   468  4.4517e+10  1.9633e-02  4.5873e-02  3.8154e-02  3.6224e-02  9.9877e-01  4.9865e-01  0:15:09   32

 absolute pressure limited to 5.000000e+10 in 263025 cells on zone 900 

 turbulent viscosity limited to viscosity ratio of 1.000000e+05 in 254135 cells 
   469  4.5783e+10  1.9307e-02  4.5313e-02  3.8046e-02  3.9515e-02  9.9714e-01  4.9784e-01  0:14:37   31

 absolute pressure limited to 5.000000e+10 in 263058 cells on zone 900 

 turbulent viscosity limited to viscosity ratio of 1.000000e+05 in 253660 cells 
   470  4.3902e+10  1.8860e-02  4.4780e-02  3.6729e-02  3.6917e-02  9.9424e-01  4.9639e-01  0:14:12   30

 absolute pressure limited to 5.000000e+10 in 263047 cells on zone 900 

 turbulent viscosity limited to viscosity ratio of 1.000000e+05 in 254140 cells 
   471  4.5636e+10  1.9112e-02  4.5689e-02  3.4487e-02  3.6807e-02  9.8728e-01  4.9338e-01  0:13:55   29

 absolute pressure limited to 5.000000e+10 in 263054 cells on zone 900 

 turbulent viscosity limited to viscosity ratio of 1.000000e+05 in 253650 cells 
   472  4.6225e+10  1.9284e-02  4.5908e-02  3.3888e-02  3.5209e-02  9.9466e-01  4.9493e-01  0:13:24   28

 absolute pressure limited to 5.000000e+10 in 263045 cells on zone 900 

 turbulent viscosity limited to viscosity ratio of 1.000000e+05 in 253937 cells 
   473  4.4321e+10  1.9038e-02  4.5195e-02  3.3386e-02  3.7558e-02  9.9473e-01  4.9610e-01  0:12:46   27
 temperature limited to 5.000000e+03 in 1 cells on zone 900 in domain 1
 
 absolute pressure limited to 5.000000e+10 in 263085 cells on zone 900 

 turbulent viscosity limited to viscosity ratio of 1.000000e+05 in 253589 cells 

  iter  continuity  x-velocity  y-velocity  z-velocity      energy           k       omega     time/iter
   474  4.6709e+10  1.9438e-02  4.6291e-02  3.3775e-02  3.6591e-02  9.9168e-01  4.9389e-01  0:12:23   26
 temperature limited to 1.000000e+00 in 3 cells on zone 900 in domain 1
 
 absolute pressure limited to 5.000000e+10 in 263043 cells on zone 900 

 turbulent viscosity limited to viscosity ratio of 1.000000e+05 in 253742 cells 
   475  4.6896e+10  1.8860e-02  4.4883e-02  3.5199e-02  3.7738e-02  9.8553e-01  4.9055e-01  0:11:53   25
 temperature limited to 1.000000e+00 in 8 cells on zone 900 in domain 1
 
 absolute pressure limited to 5.000000e+10 in 263058 cells on zone 900 

 turbulent viscosity limited to viscosity ratio of 1.000000e+05 in 253598 cells 
   476  4.4103e+10  1.9191e-02  4.6403e-02  3.4924e-02  4.2319e-02  9.9523e-01  4.9548e-01  0:11:14   24
 temperature limited to 1.000000e+00 in 16 cells on zone 900 in domain 1
 
 absolute pressure limited to 5.000000e+10 in 263046 cells on zone 900 

 turbulent viscosity limited to viscosity ratio of 1.000000e+05 in 253922 cells 
   477  4.6078e+10  1.9759e-02  4.6249e-02  3.5725e-02  3.8688e-02  9.9513e-01  4.9539e-01  0:10:56   23
 temperature limited to 1.000000e+00 in 22 cells on zone 900 in domain 1
 
 absolute pressure limited to 5.000000e+10 in 263023 cells on zone 900 

 turbulent viscosity limited to viscosity ratio of 1.000000e+05 in 253726 cells 
   478  4.6725e+10  1.9051e-02  4.4830e-02  3.5702e-02  3.9092e-02  9.9595e-01  4.9548e-01  0:10:31   22
 temperature limited to 1.000000e+00 in 26 cells on zone 900 in domain 1
 
 absolute pressure limited to 5.000000e+10 in 263018 cells on zone 900 

 turbulent viscosity limited to viscosity ratio of 1.000000e+05 in 253984 cells 
   479  4.3942e+10  1.8892e-02  4.4762e-02  3.5738e-02  3.8784e-02  9.8926e-01  4.9224e-01  0:09:59   21
 temperature limited to 1.000000e+00 in 36 cells on zone 900 in domain 1
 
 absolute pressure limited to 5.000000e+10 in 263032 cells on zone 900 

 turbulent viscosity limited to viscosity ratio of 1.000000e+05 in 253873 cells 
   480  4.4167e+10  1.9260e-02  4.5337e-02  3.5332e-02  3.8130e-02  9.9532e-01  4.9471e-01  0:09:31   20
 temperature limited to 1.000000e+00 in 44 cells on zone 900 in domain 1
 
 absolute pressure limited to 5.000000e+10 in 263056 cells on zone 900 

 turbulent viscosity limited to viscosity ratio of 1.000000e+05 in 254045 cells 
   481  4.5127e+10  2.0239e-02  4.6702e-02  3.4817e-02  3.6530e-02  9.9739e-01  4.9591e-01  0:08:59   19
 temperature limited to 1.000000e+00 in 54 cells on zone 900 in domain 1
 
 absolute pressure limited to 5.000000e+10 in 263041 cells on zone 900 

 turbulent viscosity limited to viscosity ratio of 1.000000e+05 in 253959 cells 
   482  4.2984e+10  1.9978e-02  4.6743e-02  3.3934e-02  3.6871e-02  9.8929e-01  4.9208e-01  0:08:28   18
 temperature limited to 1.000000e+00 in 52 cells on zone 900 in domain 1
 
 absolute pressure limited to 5.000000e+10 in 263057 cells on zone 900 

 turbulent viscosity limited to viscosity ratio of 1.000000e+05 in 254082 cells 
   483  4.1794e+10  2.0121e-02  4.8255e-02  3.3898e-02  3.6788e-02  9.8261e-01  4.8985e-01  0:07:59   17
 temperature limited to 1.000000e+00 in 57 cells on zone 900 in domain 1
 
 absolute pressure limited to 5.000000e+10 in 263053 cells on zone 900 

 turbulent viscosity limited to viscosity ratio of 1.000000e+05 in 254038 cells 
   484  4.1049e+10  2.0294e-02  4.9347e-02  3.6431e-02  3.6771e-02  9.6987e-01  4.8310e-01  0:07:35   16
 temperature limited to 1.000000e+00 in 65 cells on zone 900 in domain 1
 
 absolute pressure limited to 5.000000e+10 in 263055 cells on zone 900 

 turbulent viscosity limited to viscosity ratio of 1.000000e+05 in 254113 cells 

  iter  continuity  x-velocity  y-velocity  z-velocity      energy           k       omega     time/iter
   485  4.0693e+10  2.0801e-02  4.9442e-02  3.6327e-02  3.4617e-02  9.8156e-01  4.8509e-01  0:07:09   15
