/opt/crc/a/ansys/2024R1/v241/fluent/fluent24.1.0/bin/fluent -r24.1.0 3ddp -t4 -g
/opt/crc/a/ansys/2024R1/v241/fluent/fluent24.1.0/cortex/lnamd64/cortex.24.1.0 -f fluent -g (fluent "3ddp -pshmem  -host -r24.1.0 -t4 -mpi=intel -path/opt/crc/a/ansys/2024R1/v241/fluent -ssh")

Opening input/output transcript to file "/tmp/1007971.1.long/worker-241760-67324/task.26/fluent-20241130-065230-72394.trn".
Auto-Transcript Start Time:  06:52:30, 30 Nov 2024 
/opt/crc/a/ansys/2024R1/v241/fluent/fluent24.1.0/bin/fluent -r24.1.0 3ddp -pshmem -host -t4 -mpi=intel -path/opt/crc/a/ansys/2024R1/v241/fluent -ssh -cx d32cepyc205.crc.nd.edu:38907:43281
Starting /opt/crc/a/ansys/2024R1/v241/fluent/fluent24.1.0/lnamd64/3ddp_host/fluent.24.1.0 host -cx d32cepyc205.crc.nd.edu:38907:43281 "(list (rpsetvar (QUOTE parallel/function) "fluent 3ddp -flux -node -r24.1.0 -t4 -pshmem -mpi=intel -ssh") (rpsetvar (QUOTE parallel/rhost) "") (rpsetvar (QUOTE parallel/ruser) "") (rpsetvar (QUOTE parallel/nprocs_string) "4") (rpsetvar (QUOTE parallel/auto-spawn?) #t) (rpsetvar (QUOTE parallel/trace-level) 0) (rpsetvar (QUOTE parallel/remote-shell) 1) (rpsetvar (QUOTE parallel/path) "/opt/crc/a/ansys/2024R1/v241/fluent") (rpsetvar (QUOTE parallel/hostsfile) "") (rpsetvar (QUOTE gpuapp/devices) ""))"

              Welcome to ANSYS Fluent 2024 R1

              Copyright 1987-2024 ANSYS, Inc. All Rights Reserved.
              Unauthorized use, distribution or duplication is prohibited.
              This product is subject to U.S. laws governing export and re-export.
              For full Legal Notice, see documentation.

Build Time: Nov 22 2023 10:07:25 EST  Build Id: 10184  
 
Connected License Server List:	7504@linux5-lic.crc.nd.edu

     --------------------------------------------------------------
     This is an academic version of ANSYS FLUENT. Usage of this product
     license is limited to the terms and conditions specified in your ANSYS
     license form, additional terms section.
     --------------------------------------------------------------
Host spawning Node 0 on machine "d32cepyc205.crc.nd.edu" (unix).
/opt/crc/a/ansys/2024R1/v241/fluent/fluent24.1.0/bin/fluent -r24.1.0 3ddp -flux -node -t4 -pshmem -mpi=intel -ssh -mport 10.32.91.177:10.32.91.177:41713:0
Starting /opt/crc/a/ansys/2024R1/v241/fluent/fluent24.1.0/multiport/mpi/lnamd64/intel2021/bin/mpirun --rsh=ssh -f /tmp/fluent-appfile.etracey.74999 -genv I_MPI_FABRICS shm -genv FLUENT_ARCH lnamd64 -genv I_MPI_DEBUG 0 -genv I_MPI_ADJUST_GATHERV 3 -genv I_MPI_ADJUST_ALLREDUCE 2 -genv I_MPI_PLATFORM auto -genv PYTHONHOME /opt/crc/a/ansys/2024R1/v241/fluent/fluent24.1.0/../../commonfiles/CPython/3_10/linx64/Release/python -genv FLUENT_PROD_DIR /opt/crc/a/ansys/2024R1/v241/fluent/fluent24.1.0 -genv FLUENT_AFFINITY 0 -genv I_MPI_PIN enable -genv KMP_AFFINITY disabled -n 4 /opt/crc/a/ansys/2024R1/v241/fluent/fluent24.1.0/lnamd64/3ddp_node/fluent_mpi.24.1.0 node -mpiw intel -pic shmem -mport 10.32.91.177:10.32.91.177:41713:0

--------------------------------------------------------------------------------
ID    Hostname              Core  O.S.      PID          Vendor                
--------------------------------------------------------------------------------
n0-3  d32cepyc205.crc.nd.e  4/64  Linux-64  75135-75138  AMD EPYC 7543 32-Core 
host  d32cepyc205.crc.nd.e        Linux-64  73861        AMD EPYC 7543 32-Core 

MPI Option Selected: intel
Selected system interconnect: shared-memory
--------------------------------------------------------------------------------


Initializing SGE
Done.
Cleanup script file is /tmp/1007971.1.long/worker-241760-67324/task.26/cleanup-fluent-d32cepyc205.crc.nd.edu-73861.sh
Key Behavioral Changes:
Fluent Guided Meshing Workflows: 
Workflow template files (.wft) are now saved by default whenever the mesh is saved. You can change the automatic creation of .wft files in Preferences. 
Journaling: 
When Ansys Fluent encounters an invalid input in a journal file that is being replayed, it now raises an error condition and aborts the journal processing. 
Turbulence: 
The value of kappa used in the Spalart-Allmaras model for interior terms was inconsistent with the reference publications of the model. Fluent historically used a value of 0.4187, but to produce results consistent with the published model, the value should be 0.41. This issue was first addressed in a previous Fluent version and access to the kappa value was given in the GUI while keeping the old default of 0.4187. In Fluent 2024 R1, the default value is now changed to 0.41. 
Turbomachinery: 
For Blade Film Cooling, you can now specify stationary holes on the surfaces of a moving/rotating cell zone in transient cases. 
Boundaries previously referred to as "casings" in the Turbo Topology definition are now referred to as "shrouds." 
Density-Based Solver: 
The High Speed Numerics have been updated to increase the robustness of the Roe-FDS numerical flux against shock-instabilities and the carbuncle phenomenon. This modification may produce a slight solution change for cases combining Roe-FDS and HSN. 
Multiphase Models: 
Modeling of open channel flows in conjunction with the translation moving reference frame (MRF) has been improved resulting in more accurate and stable solution. In addition, a solution methodology has been suggested to provide better stability for high-speed hull simulations. 
Parallel Processing: 
Using dynamic process spawning now requires that you manually specify the interconnect as -pethernet for shared memory or distributed memory without InfiniBand, and -pib.ofed for distributed memory over InfiniBand. 
Refer to the Ansys, Inc. Release Notes for a full listing of the new features included in Ansys Fluent 2024 R1. 
> Fast-loading "/opt/crc/a/ansys/2024R1/v241/fluent/fluent24.1.0/addons/afd/lib/hdfio.bin"
Done.
WARNING: Rank:0 Machine d32cepyc205.crc.nd.edu has 51 % of RAM filled with file buffer caches.
This can cause potential performance issues. Please use -cflush flag to flush the cache. 


Reading from d32cepyc205.crc.nd.edu:"/tmp/1007971.1.long/worker-241760-67324/task.26/case.cas.h5" in NODE0 mode ...
  Reading mesh ...
      263237 cells,     1 cell zone  ...
         263237 polyhedra cells,  zone id: 900
     1517660 faces,     5 face zones ...
            514 polygonal pressure-far-field faces,  zone id: 17
            512 polygonal pressure-far-field faces,  zone id: 18
           4017 polygonal pressure-far-field faces,  zone id: 19
          30625 polygonal wall faces,  zone id: 20
        1481992 polygonal interior faces,  zone id: 899
     1099102 nodes,     1 node zone  ...
  Done.


Building...
     mesh
	auto partitioning mesh by Metis (fast),
	distributing mesh
		parts....,
		faces....,
		nodes....,
		cells....,
        bandwidth reduction using Reverse Cuthill-McKee: 67505/4420 = 15.2726
  Reading boundary layer flags ...
  Done.

     materials,
     interface,
     domains,
	mixture
     zones,
	inlet
	outlet
	farfield
	launchvehicle
	interior--solid
	solid
     parallel,
Done.
Warning: Pressure far-field boundary condition can only be used with ideal gas law.
  Please change either the boundary condition type or enable ideal gas law.
  Solver cannot proceed until this is fixed.
	Warning: Pressure far-field boundary condition can only be used with ideal gas law.
  Please change either the boundary condition type or enable ideal gas law.
  Solver cannot proceed until this is fixed.
	
> adjoint/                parallel/               server/
define/                 parametric-study/       solve/
display/                plot/                   surface/
exit                    preferences/            turbo-workflow/
file/                   print-license-usage     views/
mesh/                   report/

> air is a fluid

Density
no data required.


Note: Enabling energy equation as required by material density method.

> adjoint/                parallel/               server/
define/                 parametric-study/       solve/
display/                plot/                   surface/
exit                    preferences/            turbo-workflow/
file/                   print-license-usage     views/
mesh/                   report/

> 
> adjoint/                parallel/               server/
define/                 parametric-study/       solve/
display/                plot/                   surface/
exit                    preferences/            turbo-workflow/
file/                   print-license-usage     views/
mesh/                   report/

> 
> adjoint/                parallel/               server/
define/                 parametric-study/       solve/
display/                plot/                   surface/
exit                    preferences/            turbo-workflow/
file/                   print-license-usage     views/
mesh/                   report/

> (farfield outlet inlet)

> (farfield outlet inlet)

> (farfield outlet inlet)

> adjoint/                parallel/               server/
define/                 parametric-study/       solve/
display/                plot/                   surface/
exit                    preferences/            turbo-workflow/
file/                   print-license-usage     views/
mesh/                   report/

> (launchvehicle)

> adjoint/                parallel/               server/
define/                 parametric-study/       solve/
display/                plot/                   surface/
exit                    preferences/            turbo-workflow/
file/                   print-license-usage     views/
mesh/                   report/

> 
> 
> 
> 
> 
> 
> adjoint/                parallel/               server/
define/                 parametric-study/       solve/
display/                plot/                   surface/
exit                    preferences/            turbo-workflow/
file/                   print-license-usage     views/
mesh/                   report/

> 
> 
> 
> adjoint/                parallel/               server/
define/                 parametric-study/       solve/
display/                plot/                   surface/
exit                    preferences/            turbo-workflow/
file/                   print-license-usage     views/
mesh/                   report/

> 
> 
> 
> adjoint/                parallel/               server/
define/                 parametric-study/       solve/
display/                plot/                   surface/
exit                    preferences/            turbo-workflow/
file/                   print-license-usage     views/
mesh/                   report/

> 
> adjoint/                parallel/               server/
define/                 parametric-study/       solve/
display/                plot/                   surface/
exit                    preferences/            turbo-workflow/
file/                   print-license-usage     views/
mesh/                   report/

> 
Initialize using the hybrid initialization method.

Checking case topology... 
-This case has multiple farfield bc 
-Case will be initialized with constant parameters

	iter		scalar-0

	1		1.000000e+00
	2		6.087064e-04
	3		9.861689e-05
	4		1.733727e-05
	5		3.663412e-06
	6		8.624388e-07
	7		2.373457e-07
	8		9.641739e-08
	9		4.657723e-08
	10		2.737151e-08

Hybrid initialization is done.

Note: Settings to improve the robustness of pathline and
      particle tracking have been automatically enabled.


> 
  iter  continuity  x-velocity  y-velocity  z-velocity      energy           k       omega     time/iter
     1  1.0000e+00  4.0736e-05  7.1924e-05  7.6219e-05  2.4888e-06  9.0294e-01  4.7241e-01  4:04:23  499
     2  7.7981e-01  2.6851e-05  4.6920e-05  4.4534e-05  1.9801e-06  8.4211e-01  4.5618e-01  4:01:40  498
     3  5.9208e-01  2.2064e-05  3.3003e-05  3.1358e-05  1.5734e-06  7.1929e-01  4.3076e-01  3:59:57  497
     4  4.9183e-01  1.8252e-05  2.8733e-05  2.2844e-05  1.3963e-06  5.3175e-01  3.9165e-01  3:58:08  496
     5  4.5272e-01  1.7175e-05  2.4847e-05  1.9182e-05  1.2735e-06  2.7297e-01  3.3457e-01  3:55:20  495
     6  4.1118e-01  1.5557e-05  2.4203e-05  1.6288e-05  1.2615e-06  1.0730e-01  2.6284e-01  3:56:11  494
     7  3.8565e-01  1.4938e-05  2.2013e-05  1.5112e-05  1.1703e-06  4.1403e-02  1.8438e-01  3:53:38  493
     8  3.6057e-01  1.3444e-05  2.1709e-05  1.3838e-05  1.1212e-06  2.0701e-02  1.1508e-01  3:51:14  492
     9  3.4383e-01  1.2752e-05  2.0002e-05  1.3022e-05  9.9511e-07  1.6892e-02  6.5166e-02  3:50:10  491
    10  3.1676e-01  1.1134e-05  1.9109e-05  1.1784e-05  8.9894e-07  1.6442e-02  3.5640e-02  3:49:51  490
    11  3.2829e-01  1.0633e-05  1.7791e-05  1.0922e-05  7.9328e-07  1.5647e-02  1.9668e-02  3:49:21  489

  iter  continuity  x-velocity  y-velocity  z-velocity      energy           k       omega     time/iter
    12  3.0541e-01  9.3755e-06  1.6943e-05  9.7255e-06  6.8789e-07  1.4111e-02  1.1521e-02  3:50:03  488
    13  3.1749e-01  8.8968e-06  1.5679e-05  9.0375e-06  6.2660e-07  1.2538e-02  7.6704e-03  3:51:01  487
    14  2.9957e-01  8.1507e-06  1.5280e-05  8.1168e-06  5.3628e-07  1.1193e-02  5.1303e-03  3:50:19  486
    15  3.0662e-01  7.5714e-06  1.3992e-05  7.7557e-06  5.1007e-07  1.0247e-02  4.2950e-03  3:50:18  485
    16  2.9150e-01  7.1687e-06  1.3947e-05  7.2263e-06  4.6004e-07  9.2869e-03  3.3334e-03  3:49:27  484
    17  2.9005e-01  6.5489e-06  1.2547e-05  7.0024e-06  4.3948e-07  8.3952e-03  3.0135e-03  3:47:05  483
    18  2.6464e-01  6.3793e-06  1.2140e-05  6.4535e-06  4.1322e-07  7.6302e-03  2.4158e-03  3:44:40  482
    19  2.5466e-01  5.7948e-06  1.0605e-05  6.0868e-06  3.8116e-07  6.8291e-03  2.1272e-03  3:46:15  481
    20  2.2603e-01  5.7596e-06  9.9598e-06  5.6697e-06  3.7131e-07  6.2910e-03  1.8295e-03  3:48:34  480
    21  2.1133e-01  5.2684e-06  8.7421e-06  5.3860e-06  3.4497e-07  5.6920e-03  1.6339e-03  3:46:02  479
    22  1.8888e-01  5.1718e-06  8.0842e-06  5.1181e-06  3.3841e-07  5.3077e-03  1.4143e-03  3:46:03  478

  iter  continuity  x-velocity  y-velocity  z-velocity      energy           k       omega     time/iter
    23  1.7514e-01  4.7462e-06  7.3509e-06  4.8472e-06  3.1434e-07  4.8927e-03  1.4254e-03  3:45:22  477
    24  1.6155e-01  4.6028e-06  6.7459e-06  4.6026e-06  3.0034e-07  4.5461e-03  1.1992e-03  3:45:47  476
    25  1.4957e-01  4.2028e-06  6.2633e-06  4.3028e-06  2.7780e-07  4.2177e-03  1.1633e-03  3:44:44  475
    26  1.4010e-01  4.0614e-06  5.7547e-06  4.0081e-06  2.5869e-07  3.9453e-03  9.9158e-04  3:42:20  474
    27  1.3110e-01  3.6757e-06  5.3531e-06  3.7476e-06  2.3742e-07  3.7656e-03  1.0176e-03  3:42:29  473
    28  1.2196e-01  3.5273e-06  4.9266e-06  3.4045e-06  2.1805e-07  3.6987e-03  1.0704e-03  3:42:49  472
    29  1.1536e-01  3.1651e-06  4.4856e-06  3.2007e-06  1.9935e-07  3.7875e-03  1.2269e-03  3:41:21  471
    30  1.0585e-01  2.9837e-06  4.1073e-06  2.8883e-06  1.8511e-07  3.4536e-03  1.2335e-03  3:41:14  470
    31  9.9606e-02  2.6547e-06  3.6431e-06  2.6932e-06  1.6915e-07  2.8352e-03  8.0366e-04  3:38:13  469
    32  9.0011e-02  2.4712e-06  3.3229e-06  2.4511e-06  1.5771e-07  2.5013e-03  7.8985e-04  3:37:26  468
    33  8.2860e-02  2.2506e-06  2.8854e-06  2.2567e-06  1.4125e-07  2.2165e-03  7.1605e-04  3:37:04  467

  iter  continuity  x-velocity  y-velocity  z-velocity      energy           k       omega     time/iter
    34  7.5602e-02  2.1033e-06  2.6204e-06  2.0778e-06  1.3261e-07  1.9812e-03  7.9590e-04  3:36:06  466
    35  6.9125e-02  1.9314e-06  2.2656e-06  1.8918e-06  1.1959e-07  1.8166e-03  7.5346e-04  3:36:50  465
    36  6.3375e-02  1.8148e-06  2.0385e-06  1.7518e-06  1.1318e-07  1.6590e-03  7.3780e-04  3:36:47  464
    37  5.7179e-02  1.6789e-06  1.7832e-06  1.5931e-06  1.0352e-07  1.5473e-03  7.1334e-04  3:36:36  463
    38  5.1957e-02  1.5812e-06  1.6040e-06  1.4756e-06  9.7844e-08  1.4329e-03  6.4863e-04  3:36:24  462
    39  4.7688e-02  1.4663e-06  1.4477e-06  1.3546e-06  9.1354e-08  1.3280e-03  5.8498e-04  3:35:08  461
    40  4.4000e-02  1.3760e-06  1.3005e-06  1.2497e-06  8.5555e-08  1.2216e-03  5.5270e-04  3:32:02  460
    41  4.1092e-02  1.2705e-06  1.1948e-06  1.1505e-06  8.0781e-08  1.1051e-03  5.5833e-04  3:31:47  459
    42  3.8147e-02  1.1751e-06  1.0911e-06  1.0593e-06  7.5463e-08  1.0055e-03  5.0297e-04  3:31:17  458
    43  3.5516e-02  1.0756e-06  1.0071e-06  9.8841e-07  7.1797e-08  9.0854e-04  4.9206e-04  3:32:22  457
    44  3.3268e-02  9.9405e-07  9.2786e-07  9.1082e-07  6.7346e-08  8.3557e-04  4.9770e-04  3:32:26  456

  iter  continuity  x-velocity  y-velocity  z-velocity      energy           k       omega     time/iter
    45  3.1018e-02  9.1539e-07  8.4689e-07  8.4307e-07  6.3820e-08  8.0327e-04  4.7610e-04  3:32:47  455
    46  2.9366e-02  8.4903e-07  7.8647e-07  7.7491e-07  6.0237e-08  7.3821e-04  4.7360e-04  3:32:07  454
    47  2.7330e-02  7.8329e-07  7.3238e-07  7.1770e-07  5.6888e-08  8.5269e-04  5.6339e-04  3:32:06  453
    48  2.5627e-02  7.2641e-07  6.9925e-07  6.6801e-07  5.4071e-08  8.0853e-04  6.0963e-04  3:31:50  452
    49  2.3914e-02  6.7107e-07  6.5358e-07  6.2556e-07  5.1209e-08  6.9926e-04  5.0803e-04  3:31:49  451
    50  2.2246e-02  6.1941e-07  6.1632e-07  5.8788e-07  4.8472e-08  6.3613e-04  4.5671e-04  3:30:50  450
    51  2.0726e-02  5.7979e-07  5.6272e-07  5.5398e-07  4.5683e-08  5.5270e-04  4.3019e-04  3:30:36  449
    52  1.9299e-02  5.4349e-07  5.2374e-07  5.2115e-07  4.2586e-08  4.9971e-04  4.0578e-04  3:31:19  448
    53  1.7981e-02  5.1550e-07  4.7027e-07  4.8863e-07  3.9691e-08  4.5704e-04  3.5241e-04  3:29:56  447
    54  1.6900e-02  4.9222e-07  4.3018e-07  4.5647e-07  3.6226e-08  4.2103e-04  3.0862e-04  3:28:08  446
    55  1.5908e-02  4.6579e-07  3.8293e-07  4.2591e-07  3.3055e-08  3.7952e-04  3.0384e-04  3:26:40  445

  iter  continuity  x-velocity  y-velocity  z-velocity      energy           k       omega     time/iter
    56  1.5032e-02  4.4673e-07  3.4433e-07  3.9551e-07  2.9863e-08  4.1548e-04  3.1885e-04  3:26:35  444
    57  1.4179e-02  4.2168e-07  3.0914e-07  3.6745e-07  2.7164e-08  5.2433e-04  3.9348e-04  3:26:04  443
    58  1.3271e-02  4.0343e-07  2.7542e-07  3.4123e-07  2.4579e-08  6.6788e-04  5.5036e-04  3:26:21  442
    59  1.2432e-02  3.8141e-07  2.5422e-07  3.2008e-07  2.2496e-08  4.4764e-04  3.7845e-04  3:26:48  441
    60  1.1565e-02  3.6469e-07  2.2951e-07  3.0027e-07  2.0817e-08  3.4633e-04  2.4598e-04  3:27:19  440
    61  1.0850e-02  3.4590e-07  2.1981e-07  2.8357e-07  1.9418e-08  2.8456e-04  1.6530e-04  3:27:46  439
    62  1.0170e-02  3.2850e-07  2.0715e-07  2.6694e-07  1.8508e-08  2.3953e-04  1.7051e-04  3:26:46  438
    63  9.6127e-03  3.1183e-07  2.0089e-07  2.5227e-07  1.7863e-08  2.0463e-04  1.4622e-04  3:26:45  437
    64  9.1841e-03  2.9520e-07  1.9303e-07  2.3809e-07  1.7657e-08  1.8036e-04  1.3222e-04  3:27:08  436
    65  8.7696e-03  2.7789e-07  1.8385e-07  2.2614e-07  1.7395e-08  1.6269e-04  1.3723e-04  3:27:08  435
    66  8.4629e-03  2.6313e-07  1.7780e-07  2.1536e-07  1.7280e-08  1.4962e-04  1.3556e-04  3:25:59  434

  iter  continuity  x-velocity  y-velocity  z-velocity      energy           k       omega     time/iter
    67  8.1515e-03  2.4536e-07  1.6836e-07  2.0570e-07  1.7018e-08  1.3796e-04  1.1703e-04  3:22:22  433
    68  7.8830e-03  2.3142e-07  1.6155e-07  1.9706e-07  1.6775e-08  1.2814e-04  1.3069e-04  3:18:48  432
    69  7.5822e-03  2.1376e-07  1.5322e-07  1.8787e-07  1.6385e-08  1.1906e-04  1.1123e-04  3:20:00  431
    70  7.2787e-03  2.0139e-07  1.4476e-07  1.7875e-07  1.5926e-08  1.1187e-04  1.1987e-04  3:19:05  430
    71  6.9287e-03  1.8663e-07  1.3630e-07  1.6937e-07  1.5334e-08  1.0485e-04  1.1955e-04  3:19:40  429
    72  6.5714e-03  1.7738e-07  1.2679e-07  1.6151e-07  1.4620e-08  9.8371e-05  1.1493e-04  3:20:22  428
    73  6.2064e-03  1.6846e-07  1.1909e-07  1.5471e-07  1.3808e-08  9.4465e-05  1.4077e-04  3:18:39  427
    74  5.8772e-03  1.6353e-07  1.1151e-07  1.4956e-07  1.2935e-08  9.2201e-05  1.8236e-04  3:19:17  426
    75  5.5380e-03  1.5889e-07  1.0624e-07  1.4557e-07  1.2032e-08  8.8225e-05  1.6443e-04  3:17:35  425
    76  5.2661e-03  1.5635e-07  1.0229e-07  1.4174e-07  1.1235e-08  8.2687e-05  1.0340e-04  3:18:41  424
    77  4.9879e-03  1.5365e-07  9.9155e-08  1.3805e-07  1.0542e-08  7.7139e-05  9.4203e-05  3:16:42  423

  iter  continuity  x-velocity  y-velocity  z-velocity      energy           k       omega     time/iter
    78  4.7766e-03  1.5096e-07  9.6654e-08  1.3379e-07  9.9103e-09  7.1901e-05  8.4691e-05  3:14:42  422
    79  4.5732e-03  1.4794e-07  9.3814e-08  1.2952e-07  9.3310e-09  6.6362e-05  6.2479e-05  3:13:14  421
    80  4.4065e-03  1.4476e-07  9.1301e-08  1.2485e-07  8.8234e-09  6.1195e-05  5.8715e-05  3:13:08  420
    81  4.2607e-03  1.4135e-07  8.7726e-08  1.2017e-07  8.3740e-09  5.6314e-05  5.4401e-05  3:11:47  419
    82  4.1195e-03  1.3810e-07  8.4732e-08  1.1496e-07  7.9789e-09  5.2301e-05  5.7044e-05  3:11:04  418
    83  4.0274e-03  1.3404e-07  8.1475e-08  1.0963e-07  7.7276e-09  4.9086e-05  7.7257e-05  3:09:42  417
    84  3.9189e-03  1.2916e-07  7.7808e-08  1.0425e-07  7.5609e-09  4.6109e-05  7.8911e-05  3:09:08  416
    85  3.8301e-03  1.2352e-07  7.4840e-08  9.8863e-08  7.4870e-09  4.3841e-05  8.1028e-05  3:08:45  415
    86  3.7280e-03  1.1661e-07  7.1227e-08  9.3784e-08  7.4423e-09  4.2160e-05  8.6349e-05  3:08:01  414
    87  3.6156e-03  1.1008e-07  6.7671e-08  8.8667e-08  7.3812e-09  4.0410e-05  7.6982e-05  3:07:01  413
    88  3.5065e-03  1.0328e-07  6.4483e-08  8.4207e-08  7.3255e-09  3.8647e-05  6.0113e-05  3:03:57  412

  iter  continuity  x-velocity  y-velocity  z-velocity      energy           k       omega     time/iter
    89  3.3808e-03  9.6343e-08  6.0824e-08  7.9804e-08  7.2693e-09  3.7054e-05  6.2352e-05  3:03:23  411
    90  3.2526e-03  8.9795e-08  5.8731e-08  7.6176e-08  7.1894e-09  3.5460e-05  6.6681e-05  3:02:45  410
    91  3.1155e-03  8.4216e-08  5.6375e-08  7.3238e-08  7.0272e-09  3.4529e-05  6.9385e-05  3:00:47  409
    92  2.9967e-03  7.9950e-08  5.5401e-08  7.1526e-08  6.8459e-09  3.3748e-05  7.1444e-05  3:00:12  408
    93  2.8937e-03  7.7699e-08  5.4569e-08  7.0600e-08  6.6062e-09  3.3500e-05  6.1110e-05  2:59:54  407
    94  2.7974e-03  7.6665e-08  5.3964e-08  6.9824e-08  6.3402e-09  3.3248e-05  6.0707e-05  2:59:13  406
    95  2.7050e-03  7.6284e-08  5.3446e-08  6.9129e-08  6.0736e-09  3.2813e-05  4.6928e-05  2:58:58  405
    96  2.6254e-03  7.6030e-08  5.2527e-08  6.7809e-08  5.7826e-09  3.2002e-05  4.5155e-05  2:58:33  404
    97  2.5537e-03  7.5749e-08  5.1784e-08  6.6549e-08  5.5174e-09  3.0996e-05  3.4062e-05  2:58:05  403
    98  2.4806e-03  7.5664e-08  5.0780e-08  6.4995e-08  5.2508e-09  3.0524e-05  4.3593e-05  2:57:54  402
    99  2.4098e-03  7.5217e-08  4.9488e-08  6.3326e-08  4.9961e-09  2.9953e-05  4.7921e-05  2:57:35  401

  iter  continuity  x-velocity  y-velocity  z-velocity      energy           k       omega     time/iter
   100  2.3534e-03  7.5229e-08  4.8176e-08  6.1555e-08  4.7652e-09  2.9625e-05  4.1969e-05  2:57:02  400
   101  2.2904e-03  7.4601e-08  4.6410e-08  5.9577e-08  4.5680e-09  2.9433e-05  2.9685e-05  2:56:58  399
   102  2.2436e-03  7.4076e-08  4.4917e-08  5.7451e-08  4.4021e-09  2.8991e-05  2.4944e-05  2:56:29  398
   103  2.1866e-03  7.2687e-08  4.2917e-08  5.5461e-08  4.2475e-09  2.8277e-05  2.1927e-05  2:56:29  397
   104  2.1319e-03  7.1079e-08  4.1628e-08  5.3577e-08  4.1697e-09  2.7890e-05  2.8294e-05  2:55:50  396
   105  2.0704e-03  6.8947e-08  4.0215e-08  5.1741e-08  4.1389e-09  2.7325e-05  2.2756e-05  2:56:03  395
   106  2.0116e-03  6.6296e-08  3.9045e-08  4.9675e-08  4.1226e-09  2.6926e-05  2.1894e-05  2:56:14  394
   107  1.9400e-03  6.3322e-08  3.7837e-08  4.7539e-08  4.1381e-09  2.6477e-05  1.9048e-05  2:56:01  393
   108  1.8775e-03  6.0100e-08  3.6612e-08  4.5348e-08  4.1308e-09  2.5800e-05  1.9031e-05  2:55:44  392
   109  1.8109e-03  5.6830e-08  3.5424e-08  4.3351e-08  4.1096e-09  2.5379e-05  2.8656e-05  2:56:02  391
   110  1.7562e-03  5.3558e-08  3.4631e-08  4.1752e-08  4.0671e-09  2.5139e-05  3.2125e-05  2:55:37  390

  iter  continuity  x-velocity  y-velocity  z-velocity      energy           k       omega     time/iter
   111  1.6947e-03  5.0325e-08  3.3793e-08  4.0747e-08  4.0018e-09  2.4816e-05  2.9687e-05  2:55:47  389
   112  1.6490e-03  4.8147e-08  3.3225e-08  4.0016e-08  3.9178e-09  2.4432e-05  2.3162e-05  2:55:27  388
   113  1.6017e-03  4.6453e-08  3.2258e-08  3.9389e-08  3.8179e-09  2.3893e-05  2.1791e-05  2:55:10  387
   114  1.5579e-03  4.5573e-08  3.1667e-08  3.8816e-08  3.6992e-09  2.3705e-05  2.8630e-05  2:54:46  386
   115  1.5233e-03  4.4723e-08  3.0776e-08  3.8034e-08  3.5506e-09  2.3415e-05  2.6759e-05  2:53:57  385
   116  1.4826e-03  4.4301e-08  2.9997e-08  3.7027e-08  3.3968e-09  2.2721e-05  1.5957e-05  2:52:21  384
   117  1.4404e-03  4.3853e-08  2.9077e-08  3.5973e-08  3.2531e-09  2.2157e-05  1.3687e-05  2:50:35  383
   118  1.4001e-03  4.3352e-08  2.8246e-08  3.4717e-08  3.1106e-09  2.1623e-05  1.1826e-05  2:48:50  382
   119  1.3605e-03  4.2902e-08  2.7445e-08  3.3598e-08  2.9772e-09  2.0976e-05  1.7813e-05  2:49:39  381
   120  1.3218e-03  4.2406e-08  2.6491e-08  3.2263e-08  2.8533e-09  2.0374e-05  1.7059e-05  2:48:48  380
   121  1.2929e-03  4.1978e-08  2.5512e-08  3.1018e-08  2.7432e-09  1.9817e-05  1.3110e-05  2:47:10  379

  iter  continuity  x-velocity  y-velocity  z-velocity      energy           k       omega     time/iter
   122  1.2632e-03  4.1537e-08  2.4839e-08  2.9991e-08  2.6263e-09  1.9248e-05  1.8560e-05  2:46:24  378
   123  1.2434e-03  4.1014e-08  2.4219e-08  2.9053e-08  2.5247e-09  1.8568e-05  1.1335e-05  2:45:12  377
   124  1.2240e-03  4.0476e-08  2.4192e-08  2.8616e-08  2.4540e-09  1.8297e-05  1.6458e-05  2:44:07  376
   125  1.2100e-03  3.9883e-08  2.4257e-08  2.8132e-08  2.4221e-09  1.8334e-05  2.2701e-05  2:43:35  375
   126  1.1945e-03  3.9215e-08  2.4416e-08  2.7634e-08  2.4001e-09  1.8146e-05  2.1107e-05  2:44:06  374
   127  1.1750e-03  3.8216e-08  2.4455e-08  2.7007e-08  2.3744e-09  1.8016e-05  2.4099e-05  2:44:51  373
   128  1.1433e-03  3.6737e-08  2.4052e-08  2.6073e-08  2.3478e-09  1.7796e-05  3.1764e-05  2:45:12  372
   129  1.1188e-03  3.5055e-08  2.3547e-08  2.5028e-08  2.3011e-09  1.7222e-05  2.0272e-05  2:45:19  371
   130  1.0791e-03  3.2822e-08  2.2540e-08  2.3979e-08  2.2770e-09  1.6623e-05  1.2956e-05  2:45:03  370
   131  1.0347e-03  3.0590e-08  2.1737e-08  2.3048e-08  2.2344e-09  1.5965e-05  1.5959e-05  2:44:52  369
   132  9.8999e-04  2.8296e-08  2.0558e-08  2.2144e-08  2.1833e-09  1.5213e-05  1.5850e-05  2:44:48  368

  iter  continuity  x-velocity  y-velocity  z-velocity      energy           k       omega     time/iter
   133  9.5328e-04  2.6657e-08  1.9668e-08  2.1488e-08  2.1107e-09  1.4443e-05  1.0116e-05  2:44:30  367
   134  9.1339e-04  2.5253e-08  1.8609e-08  2.0942e-08  2.0184e-09  1.4153e-05  1.7880e-05  2:44:34  366
   135  8.8499e-04  2.4358e-08  1.7879e-08  2.0384e-08  1.9164e-09  1.3658e-05  1.1434e-05  2:44:02  365
   136  8.5779e-04  2.3674e-08  1.7126e-08  1.9971e-08  1.8090e-09  1.3067e-05  7.3276e-06  2:44:03  364
   137  8.3119e-04  2.2985e-08  1.6416e-08  1.9478e-08  1.6953e-09  1.2819e-05  1.8575e-05  2:43:58  363
   138  8.0877e-04  2.2558e-08  1.5729e-08  1.9007e-08  1.6054e-09  1.2054e-05  1.2139e-05  2:43:47  362
   139  7.8813e-04  2.1961e-08  1.5088e-08  1.8406e-08  1.5088e-09  1.1610e-05  1.5387e-05  2:43:02  361
   140  7.6566e-04  2.1538e-08  1.4373e-08  1.7777e-08  1.4215e-09  1.0975e-05  9.1095e-06  2:42:44  360
   141  7.3713e-04  2.0936e-08  1.3689e-08  1.7025e-08  1.3290e-09  1.0356e-05  5.8650e-06  2:42:16  359
   142  7.1489e-04  2.0360e-08  1.3001e-08  1.6392e-08  1.2481e-09  9.5694e-06  3.9140e-06  2:41:36  358
   143  6.9020e-04  1.9857e-08  1.2506e-08  1.5891e-08  1.1716e-09  8.9254e-06  2.7804e-06  2:41:03  357

  iter  continuity  x-velocity  y-velocity  z-velocity      energy           k       omega     time/iter
   144  6.7203e-04  1.9271e-08  1.1907e-08  1.5396e-08  1.1153e-09  8.4358e-06  5.2224e-06  2:39:04  356
   145  6.5335e-04  1.8777e-08  1.1612e-08  1.5038e-08  1.0838e-09  8.0663e-06  3.3289e-06  2:37:26  355
   146  6.3408e-04  1.8205e-08  1.1293e-08  1.4632e-08  1.0577e-09  7.7720e-06  2.3523e-06  2:35:43  354
   147  6.1376e-04  1.7404e-08  1.0957e-08  1.4130e-08  1.0483e-09  7.6812e-06  5.3299e-06  2:34:55  353
   148  5.9742e-04  1.6736e-08  1.0801e-08  1.3718e-08  1.0374e-09  7.5363e-06  3.3448e-06  2:33:50  352
   149  5.7869e-04  1.5763e-08  1.0389e-08  1.3206e-08  1.0358e-09  7.4029e-06  2.3110e-06  2:33:00  351
   150  5.6718e-04  1.5070e-08  1.0239e-08  1.2762e-08  1.0335e-09  7.7796e-06  1.2300e-05  2:32:57  350
   151  5.5150e-04  1.4002e-08  9.7343e-09  1.2219e-08  1.0295e-09  7.6159e-06  8.4653e-06  2:31:58  349
   152  5.3405e-04  1.3313e-08  9.3001e-09  1.1614e-08  1.0194e-09  7.3260e-06  7.9916e-06  2:31:38  348
   153  5.1824e-04  1.2502e-08  8.9333e-09  1.1122e-08  1.0014e-09  7.2126e-06  7.8480e-06  2:30:53  347
   154  5.0900e-04  1.2097e-08  8.6870e-09  1.0746e-08  9.6972e-10  6.8486e-06  4.7136e-06  2:30:28  346

  iter  continuity  x-velocity  y-velocity  z-velocity      energy           k       omega     time/iter
   155  4.9572e-04  1.1804e-08  8.3277e-09  1.0427e-08  9.4137e-10  6.5880e-06  3.0014e-06  2:29:44  345
   156  4.8754e-04  1.1543e-08  8.0956e-09  1.0168e-08  9.0168e-10  6.3476e-06  2.0085e-06  2:29:19  344
   157  4.9049e-04  1.1543e-08  7.9714e-09  9.9653e-09  8.6960e-10  6.2859e-06  3.1708e-06  2:28:50  343
   158  4.8512e-04  1.1471e-08  7.7745e-09  9.5998e-09  8.2556e-10  6.0893e-06  1.7654e-06  2:28:21  342
   159  4.8192e-04  1.1512e-08  7.6022e-09  9.3748e-09  7.9675e-10  5.9266e-06  1.1303e-06  2:27:51  341
   160  4.7919e-04  1.1476e-08  7.5425e-09  9.2740e-09  7.5588e-10  5.8865e-06  8.2799e-07  2:27:31  340
   161  4.8036e-04  1.1555e-08  7.4999e-09  9.1561e-09  7.3016e-10  6.0158e-06  6.1281e-06  2:27:30  339
   162  4.7899e-04  1.1802e-08  7.6026e-09  9.2379e-09  7.0404e-10  6.1925e-06  4.0447e-06  2:27:13  338
   163  4.8415e-04  1.2047e-08  7.6453e-09  9.3388e-09  6.8533e-10  6.3922e-06  2.6585e-06  2:27:14  337
   164  4.8032e-04  1.2160e-08  7.7348e-09  9.3169e-09  6.7467e-10  6.6240e-06  1.7523e-06  2:26:59  336
   165  4.8242e-04  1.2303e-08  7.9292e-09  9.3372e-09  6.7288e-10  6.8754e-06  3.7702e-06  2:26:07  335

  iter  continuity  x-velocity  y-velocity  z-velocity      energy           k       omega     time/iter
   166  4.7714e-04  1.2208e-08  8.0551e-09  9.4295e-09  6.7663e-10  7.0094e-06  2.4228e-06  2:25:21  334
   167  4.7041e-04  1.2149e-08  8.1930e-09  9.3748e-09  6.8906e-10  7.1983e-06  1.5661e-06  2:24:58  333
   168  4.6501e-04  1.1789e-08  8.2243e-09  9.3309e-09  6.9639e-10  7.2407e-06  1.0461e-06  2:24:18  332
   169  4.6095e-04  1.1682e-08  8.1640e-09  9.2568e-09  7.0454e-10  7.1988e-06  7.4311e-07  2:23:39  331
   170  4.4618e-04  1.1199e-08  7.9653e-09  8.9980e-09  7.0427e-10  7.1478e-06  5.7443e-07  2:23:29  330
   171  4.3892e-04  1.1058e-08  7.8937e-09  8.8033e-09  7.0124e-10  7.0468e-06  4.8390e-07  2:23:14  329
   172  4.2951e-04  1.0729e-08  7.6768e-09  8.7304e-09  6.9171e-10  6.9377e-06  4.2186e-07  2:22:32  328
   173  4.2253e-04  1.0519e-08  7.5839e-09  8.5811e-09  6.7614e-10  6.8021e-06  3.7873e-07  2:22:03  327
   174  4.1453e-04  1.0286e-08  7.4141e-09  8.5230e-09  6.6545e-10  6.9652e-06  4.6903e-06  2:21:45  326
   175  4.1047e-04  1.0281e-08  7.4548e-09  8.5904e-09  6.4357e-10  6.8844e-06  3.4263e-06  2:21:31  325
   176  3.9751e-04  1.0188e-08  7.2295e-09  8.4437e-09  6.2555e-10  6.9256e-06  4.7352e-06  2:20:14  324

  iter  continuity  x-velocity  y-velocity  z-velocity      energy           k       omega     time/iter
   177  3.8726e-04  1.0067e-08  7.2071e-09  8.3187e-09  5.9917e-10  6.8843e-06  2.9911e-06  2:19:28  323
   178  3.7831e-04  9.8929e-09  7.0171e-09  8.1989e-09  5.7575e-10  6.7270e-06  1.8230e-06  2:18:59  322
   179  3.7124e-04  9.7755e-09  6.9200e-09  8.0133e-09  5.5188e-10  6.5628e-06  1.1465e-06  2:18:26  321
   180  3.6151e-04  9.4141e-09  6.6951e-09  7.7617e-09  5.2671e-10  6.3346e-06  7.7272e-07  2:18:04  320
   181  3.5547e-04  9.1402e-09  6.5183e-09  7.4976e-09  5.0837e-10  6.0857e-06  5.5946e-07  2:17:57  319
   182  3.4230e-04  8.7389e-09  6.1656e-09  7.0813e-09  4.8465e-10  5.7748e-06  4.3653e-07  2:17:50  318
   183  3.3831e-04  8.3557e-09  5.9521e-09  6.6691e-09  4.6296e-10  5.4640e-06  3.6353e-07  2:18:06  317
   184  3.3370e-04  7.9365e-09  5.6015e-09  6.3310e-09  4.4554e-10  5.1554e-06  3.2314e-07  2:17:26  316
   185  3.2712e-04  7.4535e-09  5.3594e-09  5.9942e-09  4.2842e-10  4.8152e-06  2.0457e-06  2:17:08  315
   186  3.1906e-04  7.0188e-09  5.0518e-09  5.5400e-09  4.1396e-10  4.5204e-06  9.8999e-07  2:16:08  314
   187  3.0987e-04  6.4958e-09  4.8025e-09  5.3206e-09  4.0260e-10  4.1765e-06  5.7805e-07  2:15:39  313

  iter  continuity  x-velocity  y-velocity  z-velocity      energy           k       omega     time/iter
   188  2.9961e-04  6.1366e-09  4.5706e-09  5.0526e-09  3.8843e-10  3.9038e-06  4.1985e-07  2:15:14  312
   189  2.9990e-04  5.7145e-09  4.4199e-09  4.8122e-09  3.7646e-10  3.6881e-06  3.2539e-07  2:14:47  311
   190  2.9912e-04  5.4059e-09  4.2917e-09  4.6261e-09  3.6088e-10  3.5008e-06  2.7420e-07  2:14:29  310
   191  2.9780e-04  5.1299e-09  4.0962e-09  4.4361e-09  3.5246e-10  3.4866e-06  3.5590e-06  2:14:02  309
   192  2.8711e-04  4.9712e-09  4.0569e-09  4.2915e-09  3.3532e-10  3.3818e-06  2.1039e-06  2:13:46  308
   193  2.8251e-04  4.8333e-09  3.8423e-09  4.2043e-09  3.2539e-10  3.3590e-06  1.3903e-06  2:13:13  307
   194  2.7962e-04  4.8195e-09  3.9402e-09  4.3379e-09  3.1517e-10  3.3804e-06  9.6731e-07  2:12:54  306
   195  2.8788e-04  4.9103e-09  3.9462e-09  4.3819e-09  3.0951e-10  3.3850e-06  6.4504e-07  2:12:00  305
   196  2.8808e-04  5.1910e-09  4.2247e-09  4.5631e-09  2.9802e-10  3.4655e-06  4.7554e-07  2:11:50  304
   197  2.8787e-04  5.3314e-09  4.2648e-09  4.7082e-09  2.9840e-10  3.5179e-06  3.7111e-07  2:11:24  303
   198  2.8498e-04  5.5262e-09  4.4589e-09  4.8248e-09  2.9208e-10  3.6473e-06  3.0642e-07  2:11:04  302

  iter  continuity  x-velocity  y-velocity  z-velocity      energy           k       omega     time/iter
   199  2.8505e-04  5.6794e-09  4.5625e-09  4.9206e-09  2.9235e-10  3.8170e-06  2.6651e-07  2:10:19  301
   200  2.8481e-04  5.9103e-09  4.7555e-09  5.1119e-09  2.9611e-10  3.9923e-06  2.3472e-07  2:09:47  300
   201  2.8143e-04  6.0853e-09  4.7830e-09  5.1286e-09  2.9589e-10  4.1631e-06  2.1617e-07  2:09:15  299
   202  2.8155e-04  6.3157e-09  5.0134e-09  5.3262e-09  2.9719e-10  4.3587e-06  2.0410e-07  2:09:06  298
   203  2.8439e-04  6.4772e-09  5.0543e-09  5.4364e-09  3.0418e-10  4.5518e-06  1.9662e-07  2:08:46  297
   204  2.8609e-04  6.6434e-09  5.2118e-09  5.5429e-09  3.0877e-10  4.7057e-06  1.9052e-07  2:08:36  296
   205  2.8859e-04  6.8164e-09  5.2752e-09  5.6141e-09  3.1531e-10  4.8652e-06  1.8947e-07  2:08:10  295
   206  2.9572e-04  6.9588e-09  5.4998e-09  5.8184e-09  3.2855e-10  5.0190e-06  1.8558e-07  2:07:55  294
   207  2.9972e-04  7.0378e-09  5.4946e-09  5.7752e-09  3.3502e-10  5.1275e-06  1.8497e-07  2:07:45  293
   208  3.0130e-04  7.0683e-09  5.6242e-09  5.8949e-09  3.4205e-10  5.2072e-06  1.8239e-07  2:07:26  292
   209  3.0159e-04  7.0500e-09  5.6079e-09  5.8913e-09  3.4389e-10  5.2393e-06  1.8234e-07  2:07:14  291

  iter  continuity  x-velocity  y-velocity  z-velocity      energy           k       omega     time/iter
   210  2.9703e-04  6.9465e-09  5.6141e-09  5.7734e-09  3.4719e-10  5.1905e-06  1.6851e-07  2:06:55  290
   211  2.8941e-04  6.6891e-09  5.4261e-09  5.5513e-09  3.3683e-10  5.1215e-06  1.6840e-07  2:06:19  289
   212  2.8076e-04  6.5326e-09  5.3626e-09  5.4900e-09  3.3822e-10  5.0101e-06  1.5918e-07  2:06:02  288
   213  2.7172e-04  6.3171e-09  5.0634e-09  5.2290e-09  3.2479e-10  4.8751e-06  1.6075e-07  2:05:25  287
   214  2.6545e-04  6.1623e-09  5.0267e-09  5.1654e-09  3.1651e-10  4.7427e-06  1.6557e-07  2:04:41  286
   215  2.6186e-04  5.9476e-09  4.7782e-09  5.0370e-09  3.0613e-10  4.6019e-06  1.5957e-07  2:03:59  285
   216  2.5311e-04  5.6867e-09  4.5181e-09  4.7671e-09  2.9353e-10  4.5554e-06  4.4949e-06  2:03:40  284
   217  2.4570e-04  5.4018e-09  4.3192e-09  4.5322e-09  2.7861e-10  4.4220e-06  3.2591e-06  2:03:37  283
   218  2.4177e-04  5.1618e-09  4.1289e-09  4.3838e-09  2.7256e-10  4.2702e-06  2.2042e-06  2:03:17  282
   219  2.3741e-04  4.8480e-09  3.7930e-09  4.0535e-09  2.5720e-10  4.0608e-06  1.4517e-06  2:02:46  281
   220  2.2974e-04  4.5338e-09  3.5944e-09  3.8413e-09  2.4241e-10  3.8276e-06  9.3302e-07  2:02:07  280

  iter  continuity  x-velocity  y-velocity  z-velocity      energy           k       omega     time/iter
   221  2.3537e-04  4.2691e-09  3.4490e-09  3.6716e-09  2.3164e-10  3.6011e-06  6.3659e-07  2:01:33  279
   222  2.3101e-04  4.0651e-09  3.2550e-09  3.4039e-09  2.2586e-10  3.3365e-06  4.6229e-07  2:01:03  278
   223  2.3114e-04  3.9161e-09  3.1614e-09  3.2197e-09  2.2064e-10  3.1166e-06  3.5550e-07  2:00:34  277
   224  2.3045e-04  3.8586e-09  3.1320e-09  3.2022e-09  2.1593e-10  3.1877e-06  3.6059e-06  2:00:13  276
   225  2.4033e-04  3.8693e-09  3.2672e-09  3.2282e-09  2.1936e-10  3.2967e-06  2.1272e-06  1:59:32  275
   226  2.5036e-04  4.0218e-09  3.4484e-09  3.3664e-09  2.1607e-10  3.4480e-06  1.4158e-06  1:59:05  274
   227  2.6342e-04  4.2734e-09  3.6155e-09  3.5525e-09  2.2134e-10  3.5621e-06  9.6996e-07  1:58:40  273
   228  2.6166e-04  4.3410e-09  3.7585e-09  3.6225e-09  2.2462e-10  3.6589e-06  6.3955e-07  1:58:07  272
   229  2.6498e-04  4.6069e-09  4.0165e-09  3.7966e-09  2.2881e-10  3.7747e-06  4.5604e-07  1:57:31  271
   230  2.7199e-04  4.8130e-09  4.1043e-09  3.9817e-09  2.3011e-10  3.8834e-06  3.5072e-07  1:56:43  270
   231  2.7840e-04  4.9861e-09  4.2889e-09  4.1897e-09  2.4203e-10  4.0591e-06  2.8625e-07  1:56:30  269

  iter  continuity  x-velocity  y-velocity  z-velocity      energy           k       omega     time/iter
   232  2.8027e-04  5.1825e-09  4.4506e-09  4.3404e-09  2.3952e-10  4.1414e-06  2.4396e-07  1:55:46  268
   233  2.8386e-04  5.3849e-09  4.5212e-09  4.4920e-09  2.5034e-10  4.2588e-06  2.1401e-07  1:55:07  267
   234  2.7380e-04  5.3968e-09  4.5511e-09  4.5537e-09  2.4997e-10  4.3150e-06  1.9493e-07  1:54:33  266
   235  2.7461e-04  5.5927e-09  4.6946e-09  4.6392e-09  2.5605e-10  4.4294e-06  1.8044e-07  1:54:14  265
   236  2.7357e-04  5.7328e-09  4.6955e-09  4.8464e-09  2.5703e-10  4.5277e-06  1.7334e-07  1:53:42  264
   237  2.7267e-04  5.8893e-09  4.8195e-09  4.9342e-09  2.6591e-10  4.6442e-06  1.6612e-07  1:53:24  263
   238  2.7031e-04  5.9761e-09  4.8713e-09  4.9868e-09  2.6786e-10  4.7218e-06  1.6307e-07  1:52:59  262
   239  2.7290e-04  6.1094e-09  4.9803e-09  5.1109e-09  2.7127e-10  4.7854e-06  1.6080e-07  1:52:38  261
   240  2.6796e-04  6.0587e-09  4.9105e-09  5.1016e-09  2.7021e-10  4.7864e-06  1.5310e-07  1:52:17  260
   241  2.6641e-04  6.0984e-09  4.9875e-09  5.1174e-09  2.7225e-10  4.7804e-06  1.5203e-07  1:52:02  259
   242  2.5825e-04  5.9375e-09  4.8713e-09  5.0463e-09  2.6647e-10  4.6777e-06  1.4437e-07  1:51:29  258

  iter  continuity  x-velocity  y-velocity  z-velocity      energy           k       omega     time/iter
   243  2.4881e-04  5.8304e-09  4.8015e-09  4.8982e-09  2.6590e-10  4.5772e-06  1.3977e-07  1:51:05  257
   244  2.3865e-04  5.5779e-09  4.6220e-09  4.7198e-09  2.5997e-10  4.4788e-06  1.3877e-07  1:50:40  256
   245  2.3926e-04  5.4522e-09  4.5458e-09  4.6647e-09  2.5572e-10  4.4000e-06  1.4202e-07  1:50:07  255
   246  2.3211e-04  5.2794e-09  4.3909e-09  4.5332e-09  2.4374e-10  4.2592e-06  1.3944e-07  1:49:38  254
   247  2.3204e-04  5.0539e-09  4.2396e-09  4.2911e-09  2.4025e-10  4.1204e-06  1.3875e-07  1:48:53  253
   248  2.2574e-04  4.7785e-09  4.0023e-09  4.1618e-09  2.3125e-10  3.9414e-06  1.3988e-07  1:48:27  252
   249  2.2180e-04  4.5973e-09  3.8768e-09  3.9312e-09  2.1896e-10  3.7733e-06  1.3455e-07  1:48:11  251
   250  2.2158e-04  4.2998e-09  3.6213e-09  3.6779e-09  2.1003e-10  3.6290e-06  1.3552e-07  1:47:53  250
   251  2.2453e-04  4.1275e-09  3.5666e-09  3.6203e-09  1.9862e-10  3.4544e-06  1.4025e-07  1:47:47  249
   252  2.1906e-04  3.7923e-09  3.2814e-09  3.3373e-09  1.9068e-10  3.2284e-06  1.2873e-07  1:47:25  248
   253  2.1426e-04  3.5081e-09  3.0843e-09  3.0044e-09  1.8001e-10  3.0042e-06  1.2714e-07  1:47:06  247

  iter  continuity  x-velocity  y-velocity  z-velocity      energy           k       omega     time/iter
   254  2.0977e-04  3.1669e-09  2.8301e-09  2.7708e-09  1.7141e-10  2.7814e-06  1.2563e-07  1:46:30  246
   255  2.0641e-04  2.9576e-09  2.6941e-09  2.6232e-09  1.6127e-10  2.6083e-06  1.2840e-07  1:45:52  245
   256  2.0465e-04  2.8307e-09  2.6323e-09  2.4600e-09  1.5524e-10  2.4442e-06  1.2737e-07  1:45:28  244
   257  2.1111e-04  2.7499e-09  2.5919e-09  2.3511e-09  1.5331e-10  2.3495e-06  1.3198e-07  1:45:05  243
   258  2.0822e-04  2.8234e-09  2.7190e-09  2.4259e-09  1.5354e-10  2.3519e-06  1.3441e-07  1:44:45  242
   259  2.1124e-04  2.8587e-09  2.7123e-09  2.4009e-09  1.5112e-10  2.3914e-06  1.3578e-07  1:44:42  241
   260  2.1204e-04  3.0787e-09  2.8763e-09  2.6771e-09  1.5069e-10  2.4817e-06  1.4211e-07  1:44:40  240
   261  2.1412e-04  3.2116e-09  2.9485e-09  2.8020e-09  1.5643e-10  2.5609e-06  1.3726e-07  1:44:28  239
   262  2.1752e-04  3.3769e-09  3.1356e-09  2.8524e-09  1.5950e-10  2.6800e-06  1.3338e-07  1:43:46  238
   263  2.2220e-04  3.5317e-09  3.2747e-09  3.0188e-09  1.6119e-10  2.8462e-06  1.3594e-07  1:43:30  237
   264  2.2070e-04  3.8137e-09  3.5129e-09  3.2177e-09  1.6877e-10  2.9804e-06  1.2859e-07  1:43:14  236

  iter  continuity  x-velocity  y-velocity  z-velocity      energy           k       omega     time/iter
   265  2.2324e-04  4.0159e-09  3.5795e-09  3.3296e-09  1.7364e-10  3.1847e-06  1.3232e-07  1:42:46  235
   266  2.2503e-04  4.2562e-09  3.8396e-09  3.6097e-09  1.8742e-10  3.4324e-06  1.3608e-07  1:42:41  234
   267  2.2631e-04  4.4719e-09  3.9215e-09  3.7274e-09  1.9598e-10  3.6159e-06  1.3554e-07  1:42:03  233
   268  2.2605e-04  4.8592e-09  4.1881e-09  3.9331e-09  2.0852e-10  3.8756e-06  1.3897e-07  1:41:33  232
   269  2.3285e-04  5.0672e-09  4.3236e-09  4.1788e-09  2.1962e-10  4.1126e-06  1.4322e-07  1:41:09  231
   270  2.3478e-04  5.3951e-09  4.5593e-09  4.4044e-09  2.3337e-10  4.3190e-06  1.3932e-07  1:40:35  230
   271  2.4110e-04  5.5978e-09  4.6375e-09  4.5076e-09  2.3905e-10  4.5096e-06  1.4260e-07  1:40:02  229
   272  2.4571e-04  5.8266e-09  4.8513e-09  4.7712e-09  2.5268e-10  4.6653e-06  1.4007e-07  1:39:34  228
   273  2.5237e-04  5.9411e-09  4.9104e-09  4.8426e-09  2.5566e-10  4.7531e-06  1.4041e-07  1:38:59  227
   274  2.5502e-04  6.0441e-09  5.0248e-09  4.9024e-09  2.6090e-10  4.7827e-06  1.3514e-07  1:38:33  226
   275  2.5542e-04  5.9305e-09  4.9169e-09  4.9116e-09  2.6160e-10  4.7937e-06  1.3752e-07  1:38:08  225

  iter  continuity  x-velocity  y-velocity  z-velocity      energy           k       omega     time/iter
   276  2.5262e-04  5.9458e-09  4.9808e-09  4.9078e-09  2.6169e-10  4.7197e-06  1.3620e-07  1:37:37  224
   277  2.4858e-04  5.7736e-09  4.8320e-09  4.7386e-09  2.5866e-10  4.6633e-06  1.3665e-07  1:37:10  223
   278  2.4899e-04  5.6423e-09  4.8253e-09  4.7631e-09  2.5819e-10  4.6153e-06  1.4281e-07  1:36:42  222
   279  2.4033e-04  5.5147e-09  4.6538e-09  4.6287e-09  2.4990e-10  4.4893e-06  1.3525e-07  1:36:16  221
   280  2.3499e-04  5.4186e-09  4.5278e-09  4.4660e-09  2.4271e-10  4.3593e-06  1.3501e-07  1:35:36  220
   281  2.2592e-04  5.1260e-09  4.3337e-09  4.3193e-09  2.3431e-10  4.2157e-06  1.3627e-07  1:35:06  219
   282  2.1794e-04  4.8843e-09  4.1600e-09  4.1408e-09  2.2974e-10  3.9887e-06  1.2764e-07  1:34:35  218
   283  2.1335e-04  4.5774e-09  3.8340e-09  3.8365e-09  2.1609e-10  3.7980e-06  1.2979e-07  1:34:07  217
   284  2.1185e-04  4.2830e-09  3.7078e-09  3.7679e-09  2.0898e-10  3.6111e-06  1.3357e-07  1:33:38  216
   285  2.1054e-04  4.0585e-09  3.4597e-09  3.5242e-09  1.9777e-10  3.3870e-06  1.2656e-07  1:33:09  215
   286  2.0583e-04  3.7189e-09  3.1361e-09  3.1908e-09  1.8525e-10  3.1448e-06  1.2508e-07  1:32:36  214

  iter  continuity  x-velocity  y-velocity  z-velocity      energy           k       omega     time/iter
   287  2.0018e-04  3.3997e-09  2.9189e-09  2.9774e-09  1.7520e-10  2.9504e-06  1.2797e-07  1:32:11  213
   288  2.0106e-04  3.1569e-09  2.7525e-09  2.7485e-09  1.6985e-10  2.7296e-06  1.3055e-07  1:31:55  212
   289  2.0302e-04  2.9904e-09  2.6842e-09  2.5479e-09  1.6576e-10  2.5796e-06  1.3166e-07  1:31:07  211
   290  2.0821e-04  2.9433e-09  2.6443e-09  2.6006e-09  1.5902e-10  2.5386e-06  1.3729e-07  1:30:37  210
   291  2.1716e-04  3.0025e-09  2.7503e-09  2.6271e-09  1.6144e-10  2.5375e-06  1.3707e-07  1:29:56  209
   292  2.2215e-04  3.0326e-09  2.8537e-09  2.6009e-09  1.5786e-10  2.6167e-06  1.3848e-07  1:29:16  208
   293  2.3172e-04  3.3394e-09  3.1446e-09  2.8163e-09  1.6024e-10  2.7800e-06  1.3889e-07  1:29:19  207
   294  2.3692e-04  3.5588e-09  3.2777e-09  3.0610e-09  1.6436e-10  2.9009e-06  1.3354e-07  1:28:52  206
   295  2.4281e-04  3.8041e-09  3.5037e-09  3.1847e-09  1.7125e-10  3.1246e-06  1.3542e-07  1:28:28  205
   296  2.5305e-04  4.0386e-09  3.7291e-09  3.4794e-09  1.7476e-10  3.2960e-06  1.3960e-07  1:28:17  204
   297  2.6128e-04  4.3732e-09  3.8858e-09  3.7001e-09  1.8912e-10  3.4759e-06  1.3695e-07  1:27:48  203

  iter  continuity  x-velocity  y-velocity  z-velocity      energy           k       omega     time/iter
   298  2.6180e-04  4.4681e-09  3.9583e-09  3.7423e-09  1.9508e-10  3.6524e-06  1.4178e-07  1:27:21  202
   299  2.5985e-04  4.7500e-09  4.2015e-09  4.0138e-09  2.0399e-10  3.8592e-06  1.4064e-07  1:26:50  201
   300  2.5658e-04  4.9832e-09  4.2373e-09  4.2017e-09  2.1054e-10  3.9915e-06  1.3849e-07  1:26:22  200
   301  2.5946e-04  5.1320e-09  4.3862e-09  4.2945e-09  2.2351e-10  4.1997e-06  1.4286e-07  1:25:47  199
   302  2.6112e-04  5.3296e-09  4.5428e-09  4.5562e-09  2.2845e-10  4.3251e-06  1.4542e-07  1:25:16  198
   303  2.6358e-04  5.5783e-09  4.6227e-09  4.6761e-09  2.3861e-10  4.4181e-06  1.3865e-07  1:24:59  197
   304  2.5932e-04  5.5181e-09  4.5997e-09  4.6252e-09  2.4371e-10  4.4733e-06  1.3746e-07  1:24:27  196
   305  2.5606e-04  5.6785e-09  4.7809e-09  4.7567e-09  2.4546e-10  4.5467e-06  1.3749e-07  1:23:46  195
   306  2.5508e-04  5.6803e-09  4.7186e-09  4.7911e-09  2.4727e-10  4.5794e-06  1.3413e-07  1:23:41  194
   307  2.5413e-04  5.7104e-09  4.7664e-09  4.7914e-09  2.4838e-10  4.5818e-06  1.3115e-07  1:23:22  193
   308  2.4636e-04  5.5820e-09  4.6596e-09  4.7350e-09  2.4553e-10  4.5174e-06  1.3254e-07  1:23:00  192

  iter  continuity  x-velocity  y-velocity  z-velocity      energy           k       omega     time/iter
   309  2.3745e-04  5.5043e-09  4.6270e-09  4.6431e-09  2.4390e-10  4.4256e-06  1.2813e-07  1:22:37  191
   310  2.2951e-04  5.2908e-09  4.4285e-09  4.4491e-09  2.4007e-10  4.3440e-06  1.3165e-07  1:21:56  190
   311  2.2837e-04  5.1635e-09  4.3794e-09  4.4297e-09  2.3624e-10  4.2777e-06  1.3403e-07  1:21:42  189
   312  2.2395e-04  5.0652e-09  4.2858e-09  4.3456e-09  2.2694e-10  4.1640e-06  1.3453e-07  1:21:23  188
   313  2.2212e-04  4.9031e-09  4.1557e-09  4.1426e-09  2.2288e-10  4.0438e-06  1.3168e-07  1:21:00  187
   314  2.1752e-04  4.6384e-09  3.9752e-09  4.0143e-09  2.1367e-10  3.8730e-06  1.2996e-07  1:20:25  186
   315  2.1493e-04  4.4489e-09  3.7937e-09  3.7987e-09  2.0505e-10  3.7220e-06  1.2439e-07  1:20:00  185
   316  2.1152e-04  4.1486e-09  3.5172e-09  3.5790e-09  1.9512e-10  3.5570e-06  1.2465e-07  1:19:54  184
   317  2.1374e-04  3.9929e-09  3.4874e-09  3.4869e-09  1.8272e-10  3.3840e-06  1.2536e-07  1:19:36  183
   318  2.1190e-04  3.6686e-09  3.1848e-09  3.1252e-09  1.7533e-10  3.1817e-06  1.2242e-07  1:19:09  182
   319  2.0654e-04  3.3572e-09  2.9951e-09  2.8881e-09  1.6786e-10  2.9807e-06  1.2283e-07  1:18:49  181

  iter  continuity  x-velocity  y-velocity  z-velocity      energy           k       omega     time/iter
   320  2.0487e-04  3.0624e-09  2.7995e-09  2.6845e-09  1.6028e-10  2.7795e-06  1.2566e-07  1:18:19  180
   321  2.0448e-04  2.8280e-09  2.5686e-09  2.4595e-09  1.5123e-10  2.5813e-06  1.2716e-07  1:17:48  179
   322  1.9708e-04  2.6497e-09  2.5104e-09  2.3662e-09  1.4231e-10  2.4066e-06  1.2972e-07  1:17:15  178
   323  2.0559e-04  2.5401e-09  2.4998e-09  2.2431e-09  1.4192e-10  2.2881e-06  1.3204e-07  1:16:53  177
   324  2.0376e-04  2.6072e-09  2.6000e-09  2.2766e-09  1.3813e-10  2.2610e-06  1.3005e-07  1:16:35  176
   325  2.0470e-04  2.6855e-09  2.5914e-09  2.2291e-09  1.3877e-10  2.2678e-06  1.3065e-07  1:16:01  175
   326  2.0497e-04  2.7502e-09  2.7429e-09  2.4374e-09  1.3838e-10  2.3375e-06  1.3266e-07  1:15:36  174
   327  2.0732e-04  2.9896e-09  2.8519e-09  2.5696e-09  1.4222e-10  2.4376e-06  1.3075e-07  1:15:01  173
   328  2.1125e-04  3.2159e-09  3.0870e-09  2.7087e-09  1.4562e-10  2.5480e-06  1.2726e-07  1:14:20  172
   329  2.1464e-04  3.3220e-09  3.1138e-09  2.8319e-09  1.5080e-10  2.6958e-06  1.2706e-07  1:13:48  171
   330  2.1354e-04  3.5815e-09  3.3473e-09  3.0584e-09  1.5717e-10  2.8505e-06  1.2927e-07  1:13:16  170

  iter  continuity  x-velocity  y-velocity  z-velocity      energy           k       omega     time/iter
   331  2.1841e-04  3.7597e-09  3.4095e-09  3.1558e-09  1.6441e-10  3.0403e-06  1.3202e-07  1:12:48  169
   332  2.1775e-04  3.9953e-09  3.6740e-09  3.3748e-09  1.7635e-10  3.2996e-06  1.3612e-07  1:12:17  168
   333  2.2206e-04  4.2576e-09  3.7771e-09  3.5649e-09  1.8371e-10  3.5042e-06  1.3871e-07  1:11:48  167
   334  2.2256e-04  4.6523e-09  4.0953e-09  3.8230e-09  1.9643e-10  3.7377e-06  1.3647e-07  1:11:19  166
   335  2.2540e-04  4.8854e-09  4.1772e-09  3.9960e-09  2.0901e-10  3.9816e-06  1.3696e-07  1:10:59  165
   336  2.2885e-04  5.2350e-09  4.4684e-09  4.2749e-09  2.1956e-10  4.1708e-06  1.3356e-07  1:10:37  164
   337  2.3605e-04  5.4560e-09  4.5569e-09  4.4088e-09  2.3002e-10  4.3675e-06  1.3446e-07  1:10:13  163
   338  2.3891e-04  5.6507e-09  4.7318e-09  4.6145e-09  2.4139e-10  4.5229e-06  1.3148e-07  1:09:55  162
   339  2.4424e-04  5.8195e-09  4.8126e-09  4.7228e-09  2.4581e-10  4.6268e-06  1.3527e-07  1:09:25  161
   340  2.5505e-04  5.9252e-09  4.9412e-09  4.8754e-09  2.5607e-10  4.7373e-06  1.3955e-07  1:08:50  160
   341  2.5320e-04  5.9063e-09  4.9418e-09  4.9113e-09  2.5672e-10  4.7529e-06  1.3937e-07  1:08:31  159

  iter  continuity  x-velocity  y-velocity  z-velocity      energy           k       omega     time/iter
   342  2.5288e-04  5.9679e-09  4.9793e-09  4.8965e-09  2.5874e-10  4.7249e-06  1.4021e-07  1:08:13  158
   343  2.4939e-04  5.7242e-09  4.8373e-09  4.7626e-09  2.5588e-10  4.6600e-06  1.3831e-07  1:07:36  157
   344  2.4346e-04  5.6189e-09  4.8088e-09  4.6904e-09  2.5662e-10  4.5687e-06  1.3382e-07  1:07:06  156
   345  2.3450e-04  5.4616e-09  4.5989e-09  4.5509e-09  2.4727e-10  4.4672e-06  1.3545e-07  1:06:36  155
   346  2.3103e-04  5.3802e-09  4.6157e-09  4.5291e-09  2.4465e-10  4.3510e-06  1.3579e-07  1:06:16  154
   347  2.2656e-04  5.1796e-09  4.3827e-09  4.3826e-09  2.3606e-10  4.2286e-06  1.2967e-07  1:06:19  153
   348  2.1790e-04  4.9505e-09  4.1677e-09  4.2009e-09  2.2566e-10  4.0033e-06  1.2259e-07  1:05:41  152
   349  2.1251e-04  4.6435e-09  3.9386e-09  3.9437e-09  2.1493e-10  3.8298e-06  1.2455e-07  1:05:12  151
   350  2.0706e-04  4.3303e-09  3.7056e-09  3.7397e-09  2.0745e-10  3.6058e-06  1.2191e-07  1:04:54  150
   351  2.0190e-04  3.9907e-09  3.3717e-09  3.4648e-09  1.9615e-10  3.3621e-06  1.2500e-07  1:04:38  149
   352  2.0473e-04  3.6777e-09  3.2100e-09  3.2727e-09  1.8469e-10  3.1930e-06  1.3555e-07  1:04:08  148

  iter  continuity  x-velocity  y-velocity  z-velocity      energy           k       omega     time/iter
   353  2.0446e-04  3.4163e-09  2.9933e-09  3.0347e-09  1.7442e-10  2.9681e-06  1.2996e-07  1:03:51  147
   354  2.0107e-04  3.1419e-09  2.7309e-09  2.7775e-09  1.6630e-10  2.7503e-06  1.3129e-07  1:03:15  146
   355  1.9951e-04  2.9618e-09  2.6296e-09  2.6009e-09  1.5996e-10  2.5949e-06  1.3312e-07  1:02:54  145
   356  2.0312e-04  2.8967e-09  2.6167e-09  2.5324e-09  1.5640e-10  2.4929e-06  1.3255e-07  1:02:28  144
   357  2.1101e-04  2.9521e-09  2.7484e-09  2.5514e-09  1.5800e-10  2.5092e-06  1.3239e-07  1:02:13  143
   358  2.1635e-04  3.0041e-09  2.8072e-09  2.6412e-09  1.5254e-10  2.5190e-06  1.2899e-07  1:02:02  142
   359  2.2608e-04  3.1884e-09  2.9859e-09  2.7718e-09  1.5618e-10  2.6477e-06  1.3072e-07  1:01:37  141
   360  2.3165e-04  3.2879e-09  3.1212e-09  2.8671e-09  1.5746e-10  2.7832e-06  1.3145e-07  1:01:12  140
   361  2.3762e-04  3.6445e-09  3.4004e-09  3.0472e-09  1.6454e-10  3.0007e-06  1.3144e-07  1:00:48  139
   362  2.4467e-04  3.9293e-09  3.5601e-09  3.3582e-09  1.6950e-10  3.2079e-06  1.3665e-07  1:00:13  138
   363  2.5235e-04  4.2052e-09  3.7778e-09  3.5510e-09  1.8331e-10  3.4341e-06  1.3897e-07  0:59:45  137

  iter  continuity  x-velocity  y-velocity  z-velocity      energy           k       omega     time/iter
   364  2.6101e-04  4.4414e-09  3.9846e-09  3.7606e-09  1.9012e-10  3.6335e-06  1.4745e-07  0:59:12  136
   365  2.6615e-04  4.7350e-09  4.1466e-09  4.0259e-09  2.0397e-10  3.8325e-06  1.4629e-07  0:58:39  135
   366  2.5828e-04  4.8569e-09  4.2348e-09  4.1019e-09  2.1090e-10  3.9412e-06  1.4117e-07  0:58:03  134
   367  2.5946e-04  5.1084e-09  4.4319e-09  4.2383e-09  2.2027e-10  4.1263e-06  1.3961e-07  0:57:36  133
   368  2.5610e-04  5.2559e-09  4.4444e-09  4.4637e-09  2.2393e-10  4.2168e-06  1.3368e-07  0:57:15  132
   369  2.5583e-04  5.4280e-09  4.5799e-09  4.5521e-09  2.3378e-10  4.3689e-06  1.3232e-07  0:56:46  131
   370  2.5342e-04  5.4924e-09  4.6136e-09  4.6062e-09  2.3715e-10  4.4344e-06  1.3137e-07  0:56:23  130
   371  2.5540e-04  5.6312e-09  4.7226e-09  4.7343e-09  2.4271e-10  4.5038e-06  1.3060e-07  0:55:59  129
   372  2.5001e-04  5.6014e-09  4.6507e-09  4.6928e-09  2.4160e-10  4.5185e-06  1.2987e-07  0:55:35  128
   373  2.5204e-04  5.5911e-09  4.6896e-09  4.7106e-09  2.4902e-10  4.5792e-06  1.3670e-07  0:55:10  127
   374  2.4720e-04  5.5844e-09  4.6809e-09  4.7797e-09  2.4466e-10  4.5429e-06  1.3928e-07  0:54:35  126

  iter  continuity  x-velocity  y-velocity  z-velocity      energy           k       omega     time/iter
   375  2.4195e-04  5.5521e-09  4.6316e-09  4.6439e-09  2.4547e-10  4.4488e-06  1.3445e-07  0:53:55  125
   376  2.2893e-04  5.3493e-09  4.4864e-09  4.5073e-09  2.4130e-10  4.3798e-06  1.3390e-07  0:53:32  124
   377  2.2816e-04  5.2539e-09  4.4628e-09  4.4592e-09  2.3668e-10  4.2936e-06  1.3493e-07  0:53:06  123
   378  2.2198e-04  5.0543e-09  4.2834e-09  4.3196e-09  2.2943e-10  4.1692e-06  1.2779e-07  0:52:40  122
   379  2.2157e-04  4.9517e-09  4.2090e-09  4.2226e-09  2.2389e-10  4.0819e-06  1.2799e-07  0:52:12  121
   380  2.1889e-04  4.7180e-09  3.9847e-09  4.0779e-09  2.1291e-10  3.9008e-06  1.2577e-07  0:51:49  120
   381  2.1164e-04  4.5379e-09  3.8563e-09  3.8682e-09  2.0640e-10  3.7556e-06  1.2050e-07  0:51:29  119
   382  2.1040e-04  4.2470e-09  3.6310e-09  3.6124e-09  1.9588e-10  3.5904e-06  1.2649e-07  0:51:00  118
   383  2.1418e-04  3.9929e-09  3.4962e-09  3.4675e-09  1.8949e-10  3.4556e-06  1.2846e-07  0:50:35  117
   384  2.1014e-04  3.6893e-09  3.2417e-09  3.1959e-09  1.7723e-10  3.2425e-06  1.2842e-07  0:50:09  116
   385  2.1043e-04  3.4036e-09  3.0298e-09  2.9201e-09  1.6860e-10  3.0497e-06  1.2893e-07  0:49:52  115

  iter  continuity  x-velocity  y-velocity  z-velocity      energy           k       omega     time/iter
   386  2.0239e-04  3.1335e-09  2.8102e-09  2.7514e-09  1.6176e-10  2.8560e-06  1.3074e-07  0:49:18  114
   387  1.9993e-04  2.9028e-09  2.6622e-09  2.5339e-09  1.4933e-10  2.6561e-06  1.2628e-07  0:48:46  113
   388  1.9837e-04  2.6991e-09  2.5522e-09  2.3611e-09  1.4303e-10  2.4563e-06  1.2465e-07  0:48:18  112
   389  2.0596e-04  2.6156e-09  2.5336e-09  2.2793e-09  1.4241e-10  2.3441e-06  1.2896e-07  0:47:44  111
   390  2.0441e-04  2.6150e-09  2.5944e-09  2.3036e-09  1.3952e-10  2.2430e-06  1.2270e-07  0:47:24  110
   391  2.0168e-04  2.6283e-09  2.5334e-09  2.1796e-09  1.3737e-10  2.2310e-06  1.2127e-07  0:46:58  109
   392  2.0115e-04  2.7005e-09  2.6389e-09  2.3748e-09  1.3553e-10  2.2744e-06  1.2849e-07  0:46:36  108
   393  2.0281e-04  2.8449e-09  2.7141e-09  2.4986e-09  1.3623e-10  2.3460e-06  1.2701e-07  0:46:12  107
   394  2.0932e-04  3.0190e-09  2.8826e-09  2.5565e-09  1.4292e-10  2.4898e-06  1.3356e-07  0:45:51  106
   395  2.1818e-04  3.1611e-09  3.0523e-09  2.7587e-09  1.4429e-10  2.6698e-06  1.3710e-07  0:45:33  105
   396  2.1822e-04  3.5356e-09  3.3438e-09  3.0086e-09  1.5653e-10  2.8294e-06  1.3636e-07  0:45:12  104

  iter  continuity  x-velocity  y-velocity  z-velocity      energy           k       omega     time/iter
   397  2.2059e-04  3.7368e-09  3.3850e-09  3.0696e-09  1.5998e-10  3.0253e-06  1.3689e-07  0:44:40  103
   398  2.2072e-04  4.0027e-09  3.7022e-09  3.3959e-09  1.7505e-10  3.2708e-06  1.3841e-07  0:44:10  102
   399  2.2475e-04  4.2850e-09  3.8155e-09  3.5745e-09  1.8298e-10  3.4574e-06  1.3505e-07  0:43:44  101
   400  2.2211e-04  4.6043e-09  4.0142e-09  3.7183e-09  1.9644e-10  3.6658e-06  1.2913e-07  0:43:14  100
   401  2.2617e-04  4.8357e-09  4.1767e-09  3.9769e-09  2.0320e-10  3.9108e-06  1.3388e-07  0:42:53   99
   402  2.2926e-04  5.1552e-09  4.3949e-09  4.2404e-09  2.2059e-10  4.0944e-06  1.2954e-07  0:42:21   98
   403  2.3409e-04  5.3477e-09  4.4606e-09  4.2852e-09  2.2420e-10  4.2927e-06  1.3125e-07  0:41:58   97
   404  2.3893e-04  5.6006e-09  4.7023e-09  4.5825e-09  2.3850e-10  4.5130e-06  1.3947e-07  0:41:38   96
   405  2.4725e-04  5.7431e-09  4.7809e-09  4.7173e-09  2.4427e-10  4.6019e-06  1.3902e-07  0:41:19   95
   406  2.5342e-04  5.8876e-09  4.9085e-09  4.7446e-09  2.5490e-10  4.7177e-06  1.4128e-07  0:40:58   94
   407  2.5402e-04  5.8354e-09  4.8772e-09  4.8351e-09  2.5402e-10  4.7520e-06  1.4443e-07  0:40:30   93

  iter  continuity  x-velocity  y-velocity  z-velocity      energy           k       omega     time/iter
   408  2.5305e-04  5.9579e-09  5.0186e-09  4.9268e-09  2.6131e-10  4.7258e-06  1.4241e-07  0:40:05   92
   409  2.5105e-04  5.8201e-09  4.8826e-09  4.7457e-09  2.5810e-10  4.6945e-06  1.3909e-07  0:39:35   91
   410  2.4923e-04  5.7157e-09  4.9109e-09  4.8203e-09  2.5835e-10  4.6420e-06  1.3992e-07  0:39:06   90
   411  2.4311e-04  5.6533e-09  4.7797e-09  4.7508e-09  2.5131e-10  4.5342e-06  1.3016e-07  0:38:40   89
   412  2.3659e-04  5.5087e-09  4.5959e-09  4.5278e-09  2.4521e-10  4.3893e-06  1.2358e-07  0:38:03   88
   413  2.2473e-04  5.2331e-09  4.4226e-09  4.4050e-09  2.3443e-10  4.2498e-06  1.2714e-07  0:37:42   87
   414  2.2028e-04  5.0095e-09  4.2606e-09  4.2707e-09  2.3304e-10  4.0654e-06  1.2550e-07  0:37:18   86
   415  2.1413e-04  4.6771e-09  3.9006e-09  3.9160e-09  2.1888e-10  3.8605e-06  1.2503e-07  0:36:56   85
   416  2.1343e-04  4.4146e-09  3.8196e-09  3.8636e-09  2.1203e-10  3.7539e-06  1.4184e-07  0:36:24   84
   417  2.1269e-04  4.1917e-09  3.5821e-09  3.6928e-09  2.0245e-10  3.5185e-06  1.3374e-07  0:35:51   83
   418  2.1025e-04  3.8945e-09  3.2577e-09  3.3042e-09  1.8973e-10  3.2884e-06  1.3002e-07  0:35:24   82

  iter  continuity  x-velocity  y-velocity  z-velocity      energy           k       omega     time/iter
   419  1.9892e-04  3.5287e-09  3.0339e-09  3.0819e-09  1.7765e-10  3.0713e-06  1.3292e-07  0:35:01   81
   420  2.0170e-04  3.2739e-09  2.8843e-09  2.9140e-09  1.7202e-10  2.8356e-06  1.3024e-07  0:34:33   80
   421  2.0229e-04  3.0937e-09  2.7612e-09  2.6514e-09  1.6507e-10  2.6501e-06  1.2688e-07  0:34:07   79
   422  2.0538e-04  2.9308e-09  2.6092e-09  2.6129e-09  1.5627e-10  2.5075e-06  1.2639e-07  0:33:39   78
   423  2.0704e-04  2.9209e-09  2.6657e-09  2.5927e-09  1.5730e-10  2.4357e-06  1.2530e-07  0:33:09   77
   424  2.1595e-04  2.8689e-09  2.7036e-09  2.4934e-09  1.5124e-10  2.5087e-06  1.3310e-07  0:32:43   76
   425  2.2209e-04  3.1284e-09  2.9928e-09  2.7079e-09  1.5500e-10  2.6358e-06  1.3217e-07  0:32:22   75
   426  2.3317e-04  3.3701e-09  3.1062e-09  2.8766e-09  1.5625e-10  2.7722e-06  1.3478e-07  0:31:57   74
   427  2.3757e-04  3.5385e-09  3.3192e-09  3.0052e-09  1.6846e-10  2.9984e-06  1.4049e-07  0:31:35   73
   428  2.4489e-04  3.8375e-09  3.5682e-09  3.3209e-09  1.6817e-10  3.1939e-06  1.4606e-07  0:31:11   72
   429  2.5672e-04  4.1885e-09  3.7274e-09  3.5281e-09  1.8425e-10  3.3739e-06  1.4273e-07  0:30:49   71

  iter  continuity  x-velocity  y-velocity  z-velocity      energy           k       omega     time/iter
   430  2.5945e-04  4.3197e-09  3.8581e-09  3.6671e-09  1.8984e-10  3.5565e-06  1.4268e-07  0:30:24   70
   431  2.6016e-04  4.7084e-09  4.1793e-09  3.9155e-09  1.9876e-10  3.7675e-06  1.4006e-07  0:29:56   69
   432  2.5935e-04  4.8804e-09  4.2146e-09  4.0988e-09  2.0621e-10  3.8861e-06  1.3150e-07  0:29:30   68
   433  2.5634e-04  5.0264e-09  4.3594e-09  4.1947e-09  2.1711e-10  4.0566e-06  1.3287e-07  0:28:59   67
   434  2.6035e-04  5.1534e-09  4.4670e-09  4.4022e-09  2.1833e-10  4.1928e-06  1.3892e-07  0:28:23   66
   435  2.6160e-04  5.3654e-09  4.5139e-09  4.5667e-09  2.3203e-10  4.2872e-06  1.3227e-07  0:27:58   65
   436  2.5730e-04  5.3854e-09  4.5221e-09  4.5309e-09  2.3414e-10  4.3969e-06  1.3935e-07  0:27:34   64
   437  2.5492e-04  5.5636e-09  4.6814e-09  4.6499e-09  2.4155e-10  4.4901e-06  1.3875e-07  0:27:07   63
   438  2.5461e-04  5.6120e-09  4.6764e-09  4.7312e-09  2.4420e-10  4.5518e-06  1.4108e-07  0:26:39   62
   439  2.5258e-04  5.6690e-09  4.7234e-09  4.6978e-09  2.4680e-10  4.5744e-06  1.3782e-07  0:26:14   61
   440  2.4910e-04  5.5909e-09  4.6796e-09  4.7388e-09  2.4806e-10  4.5872e-06  1.4309e-07  0:25:54   60

  iter  continuity  x-velocity  y-velocity  z-velocity      energy           k       omega     time/iter
   441  2.4639e-04  5.6618e-09  4.7598e-09  4.8057e-09  2.4875e-10  4.5356e-06  1.3684e-07  0:25:30   59
   442  2.3554e-04  5.4885e-09  4.5594e-09  4.5891e-09  2.4179e-10  4.3773e-06  1.2610e-07  0:25:01   58
   443  2.2734e-04  5.3321e-09  4.5201e-09  4.4974e-09  2.3861e-10  4.3078e-06  1.2429e-07  0:24:37   57
   444  2.2165e-04  5.0957e-09  4.3017e-09  4.3642e-09  2.3026e-10  4.1757e-06  1.2214e-07  0:24:12   56
   445  2.2097e-04  4.9717e-09  4.2468e-09  4.2258e-09  2.2327e-10  4.0963e-06  1.2482e-07  0:23:45   55
   446  2.1843e-04  4.7614e-09  4.0664e-09  4.1255e-09  2.1629e-10  3.9926e-06  1.3203e-07  0:23:19   54
   447  2.1902e-04  4.5487e-09  3.8743e-09  3.9261e-09  2.1039e-10  3.8043e-06  1.2814e-07  0:22:48   53
   448  2.1070e-04  4.3126e-09  3.6736e-09  3.6750e-09  2.0102e-10  3.6680e-06  1.3036e-07  0:22:21   52
   449  2.1301e-04  4.1071e-09  3.5406e-09  3.4947e-09  1.8994e-10  3.5223e-06  1.3273e-07  0:21:56   51
   450  2.1465e-04  3.8088e-09  3.3295e-09  3.2830e-09  1.8366e-10  3.3564e-06  1.3536e-07  0:21:36   50
   451  2.1199e-04  3.5882e-09  3.2113e-09  3.0915e-09  1.7349e-10  3.1404e-06  1.3127e-07  0:21:15   49

  iter  continuity  x-velocity  y-velocity  z-velocity      energy           k       omega     time/iter
   452  2.0714e-04  3.2690e-09  2.9404e-09  2.8384e-09  1.6622e-10  2.9204e-06  1.2478e-07  0:20:51   48
   453  2.0345e-04  3.0328e-09  2.7289e-09  2.6216e-09  1.5452e-10  2.7025e-06  1.2023e-07  0:20:26   47
   454  1.9417e-04  2.7418e-09  2.5774e-09  2.4206e-09  1.4671e-10  2.4546e-06  1.1513e-07  0:19:59   46
   455  1.9718e-04  2.6023e-09  2.4925e-09  2.2669e-09  1.3820e-10  2.3306e-06  1.1911e-07  0:19:35   45
   456  2.0374e-04  2.5407e-09  2.5215e-09  2.2612e-09  1.3490e-10  2.2434e-06  1.2644e-07  0:19:08   44
   457  2.0573e-04  2.5301e-09  2.4931e-09  2.1824e-09  1.3604e-10  2.2252e-06  1.2417e-07  0:18:45   43
   458  2.0201e-04  2.6337e-09  2.6526e-09  2.2597e-09  1.3757e-10  2.2977e-06  1.3428e-07  0:18:17   42
   459  2.0500e-04  2.7750e-09  2.6566e-09  2.4282e-09  1.3613e-10  2.3689e-06  1.3517e-07  0:17:52   41
   460  2.0775e-04  3.0077e-09  2.8987e-09  2.6365e-09  1.4293e-10  2.4808e-06  1.3778e-07  0:17:25   40
   461  2.1614e-04  3.1518e-09  2.9847e-09  2.6688e-09  1.4723e-10  2.6183e-06  1.3783e-07  0:17:01   39
   462  2.2043e-04  3.4300e-09  3.3000e-09  2.9416e-09  1.5351e-10  2.8076e-06  1.3618e-07  0:16:33   38

  iter  continuity  x-velocity  y-velocity  z-velocity      energy           k       omega     time/iter
   463  2.2005e-04  3.7316e-09  3.4407e-09  3.1381e-09  1.6047e-10  2.9725e-06  1.3068e-07  0:16:06   37
   464  2.1950e-04  3.9718e-09  3.6028e-09  3.2687e-09  1.6827e-10  3.1254e-06  1.2613e-07  0:15:42   36
   465  2.2010e-04  4.1407e-09  3.7235e-09  3.4867e-09  1.7617e-10  3.3569e-06  1.2842e-07  0:15:15   35
   466  2.2408e-04  4.4323e-09  3.9641e-09  3.7212e-09  1.8918e-10  3.5621e-06  1.2883e-07  0:14:52   34
   467  2.2315e-04  4.6671e-09  4.0227e-09  3.7778e-09  1.9759e-10  3.7750e-06  1.2916e-07  0:14:23   33
   468  2.2806e-04  4.9988e-09  4.3419e-09  4.1063e-09  2.1312e-10  4.0627e-06  1.4170e-07  0:13:57   32
   469  2.3415e-04  5.2566e-09  4.4429e-09  4.3202e-09  2.2338e-10  4.2536e-06  1.3971e-07  0:13:30   31
   470  2.3942e-04  5.5412e-09  4.6375e-09  4.4485e-09  2.3630e-10  4.4629e-06  1.4408e-07  0:13:01   30
   471  2.4419e-04  5.6785e-09  4.7345e-09  4.6412e-09  2.4213e-10  4.6205e-06  1.4673e-07  0:12:33   29
   472  2.5240e-04  5.9239e-09  4.9789e-09  4.8592e-09  2.5421e-10  4.7041e-06  1.3881e-07  0:12:07   28
   473  2.5552e-04  5.9528e-09  4.9328e-09  4.7928e-09  2.5614e-10  4.7679e-06  1.3954e-07  0:11:42   27

  iter  continuity  x-velocity  y-velocity  z-velocity      energy           k       omega     time/iter
   474  2.5543e-04  5.9403e-09  5.0151e-09  4.9604e-09  2.6131e-10  4.7761e-06  1.3754e-07  0:11:19   26
   475  2.5556e-04  5.9999e-09  4.9897e-09  4.9817e-09  2.5985e-10  4.7254e-06  1.3538e-07  0:10:53   25
   476  2.5169e-04  5.8792e-09  4.9276e-09  4.8098e-09  2.5857e-10  4.6376e-06  1.3014e-07  0:10:26   24
   477  2.4109e-04  5.5696e-09  4.7094e-09  4.6527e-09  2.4956e-10  4.5090e-06  1.2816e-07  0:09:59   23
   478  2.3472e-04  5.4237e-09  4.6516e-09  4.5749e-09  2.4812e-10  4.4044e-06  1.2912e-07  0:09:34   22
   479  2.2845e-04  5.1802e-09  4.3393e-09  4.2953e-09  2.3647e-10  4.2510e-06  1.3094e-07  0:09:06   21
   480  2.2496e-04  5.0274e-09  4.3464e-09  4.2983e-09  2.3453e-10  4.1843e-06  1.4574e-07  0:08:39   20
   481  2.2356e-04  4.8575e-09  4.1400e-09  4.1885e-09  2.2540e-10  4.0129e-06  1.3795e-07  0:08:13   19
   482  2.1753e-04  4.6260e-09  3.8639e-09  3.8751e-09  2.1591e-10  3.8010e-06  1.3218e-07  0:07:45   18
   483  2.0982e-04  4.2749e-09  3.6649e-09  3.6845e-09  2.0272e-10  3.6020e-06  1.3561e-07  0:07:20   17
   484  2.0715e-04  4.0006e-09  3.4403e-09  3.4991e-09  1.9778e-10  3.3274e-06  1.2214e-07  0:06:54   16

  iter  continuity  x-velocity  y-velocity  z-velocity      energy           k       omega     time/iter
   485  2.0315e-04  3.6569e-09  3.0991e-09  3.1167e-09  1.8275e-10  3.0675e-06  1.2054e-07  0:06:29   15
   486  1.9784e-04  3.2928e-09  2.8833e-09  2.9544e-09  1.6882e-10  2.8718e-06  1.2485e-07  0:06:03   14
   487  2.0353e-04  3.1156e-09  2.7857e-09  2.8088e-09  1.6457e-10  2.6779e-06  1.2506e-07  0:05:37   13
   488  2.0454e-04  2.9378e-09  2.6092e-09  2.5605e-09  1.5809e-10  2.5567e-06  1.2927e-07  0:05:11   12
   489  2.0676e-04  2.9293e-09  2.6223e-09  2.5079e-09  1.5580e-10  2.4429e-06  1.2770e-07  0:04:45   11
   490  2.0965e-04  2.8944e-09  2.6771e-09  2.5441e-09  1.5315e-10  2.5124e-06  1.3724e-07  0:04:18   10
   491  2.2169e-04  2.9881e-09  2.8596e-09  2.5831e-09  1.5725e-10  2.6341e-06  1.4361e-07  0:03:52    9
   492  2.3508e-04  3.2498e-09  3.1271e-09  2.8676e-09  1.5677e-10  2.7859e-06  1.4769e-07  0:03:26    8
   493  2.4279e-04  3.6256e-09  3.3228e-09  3.0699e-09  1.6764e-10  2.9456e-06  1.4068e-07  0:03:00    7
   494  2.4392e-04  3.7333e-09  3.4644e-09  3.1838e-09  1.7071e-10  3.0953e-06  1.3882e-07  0:02:35    6
   495  2.4902e-04  4.1177e-09  3.7955e-09  3.4421e-09  1.7711e-10  3.2882e-06  1.3533e-07  0:02:09    5

  iter  continuity  x-velocity  y-velocity  z-velocity      energy           k       omega     time/iter
   496  2.5661e-04  4.3236e-09  3.8548e-09  3.6310e-09  1.8312e-10  3.4471e-06  1.2992e-07  0:01:44    4
   497  2.5913e-04  4.5075e-09  4.0308e-09  3.8115e-09  1.9696e-10  3.6675e-06  1.3317e-07  0:01:18    3
   498  2.6009e-04  4.7429e-09  4.1949e-09  4.0465e-09  1.9709e-10  3.8251e-06  1.3782e-07  0:00:52    2
   499  2.6080e-04  4.9641e-09  4.2348e-09  4.1950e-09  2.1505e-10  3.9830e-06  1.3362e-07  0:00:26    1
   500  2.5881e-04  5.0380e-09  4.3220e-09  4.2932e-09  2.2072e-10  4.1832e-06  1.4697e-07  0:00:00    0

> Halting due to end of file on input.
Auto-Transcript Stop Time:  10:37:16, 30 Nov 2024 
Total Transcript Time: 3 Hour 44 Minute 46 Second.

Automatic transcript closed.
