/opt/crc/a/ansys/2024R1/v241/fluent/fluent24.1.0/bin/fluent -r24.1.0 3ddp -t4 -g
/opt/crc/a/ansys/2024R1/v241/fluent/fluent24.1.0/cortex/lnamd64/cortex.24.1.0 -f fluent -g (fluent "3ddp -pshmem  -host -r24.1.0 -t4 -mpi=intel -path/opt/crc/a/ansys/2024R1/v241/fluent -ssh")

Opening input/output transcript to file "/tmp/1007972.1.long/worker-241760-67522/task.7/fluent-20241130-065223-69424.trn".
Auto-Transcript Start Time:  06:52:23, 30 Nov 2024 
/opt/crc/a/ansys/2024R1/v241/fluent/fluent24.1.0/bin/fluent -r24.1.0 3ddp -pshmem -host -t4 -mpi=intel -path/opt/crc/a/ansys/2024R1/v241/fluent -ssh -cx d32cepyc205.crc.nd.edu:45421:41437
Starting /opt/crc/a/ansys/2024R1/v241/fluent/fluent24.1.0/lnamd64/3ddp_host/fluent.24.1.0 host -cx d32cepyc205.crc.nd.edu:45421:41437 "(list (rpsetvar (QUOTE parallel/function) "fluent 3ddp -flux -node -r24.1.0 -t4 -pshmem -mpi=intel -ssh") (rpsetvar (QUOTE parallel/rhost) "") (rpsetvar (QUOTE parallel/ruser) "") (rpsetvar (QUOTE parallel/nprocs_string) "4") (rpsetvar (QUOTE parallel/auto-spawn?) #t) (rpsetvar (QUOTE parallel/trace-level) 0) (rpsetvar (QUOTE parallel/remote-shell) 1) (rpsetvar (QUOTE parallel/path) "/opt/crc/a/ansys/2024R1/v241/fluent") (rpsetvar (QUOTE parallel/hostsfile) "") (rpsetvar (QUOTE gpuapp/devices) ""))"

              Welcome to ANSYS Fluent 2024 R1

              Copyright 1987-2024 ANSYS, Inc. All Rights Reserved.
              Unauthorized use, distribution or duplication is prohibited.
              This product is subject to U.S. laws governing export and re-export.
              For full Legal Notice, see documentation.

Build Time: Nov 22 2023 10:07:25 EST  Build Id: 10184  
 
Connected License Server List:	7504@linux5-lic.crc.nd.edu

     --------------------------------------------------------------
     This is an academic version of ANSYS FLUENT. Usage of this product
     license is limited to the terms and conditions specified in your ANSYS
     license form, additional terms section.
     --------------------------------------------------------------
Host spawning Node 0 on machine "d32cepyc205.crc.nd.edu" (unix).
/opt/crc/a/ansys/2024R1/v241/fluent/fluent24.1.0/bin/fluent -r24.1.0 3ddp -flux -node -t4 -pshmem -mpi=intel -ssh -mport 10.32.91.177:10.32.91.177:37029:0
Starting /opt/crc/a/ansys/2024R1/v241/fluent/fluent24.1.0/multiport/mpi/lnamd64/intel2021/bin/mpirun --rsh=ssh -f /tmp/fluent-appfile.etracey.74048 -genv I_MPI_FABRICS shm -genv FLUENT_ARCH lnamd64 -genv I_MPI_DEBUG 0 -genv I_MPI_ADJUST_GATHERV 3 -genv I_MPI_ADJUST_ALLREDUCE 2 -genv I_MPI_PLATFORM auto -genv PYTHONHOME /opt/crc/a/ansys/2024R1/v241/fluent/fluent24.1.0/../../commonfiles/CPython/3_10/linx64/Release/python -genv FLUENT_PROD_DIR /opt/crc/a/ansys/2024R1/v241/fluent/fluent24.1.0 -genv FLUENT_AFFINITY 0 -genv I_MPI_PIN enable -genv KMP_AFFINITY disabled -n 4 /opt/crc/a/ansys/2024R1/v241/fluent/fluent24.1.0/lnamd64/3ddp_node/fluent_mpi.24.1.0 node -mpiw intel -pic shmem -mport 10.32.91.177:10.32.91.177:37029:0

--------------------------------------------------------------------------------
ID    Hostname              Core  O.S.      PID          Vendor                
--------------------------------------------------------------------------------
n0-3  d32cepyc205.crc.nd.e  4/64  Linux-64  74368-74371  AMD EPYC 7543 32-Core 
host  d32cepyc205.crc.nd.e        Linux-64  72101        AMD EPYC 7543 32-Core 

MPI Option Selected: intel
Selected system interconnect: shared-memory
--------------------------------------------------------------------------------


Initializing SGE
Done.
Cleanup script file is /tmp/1007972.1.long/worker-241760-67522/task.7/cleanup-fluent-d32cepyc205.crc.nd.edu-72101.sh
Key Behavioral Changes:
Fluent Guided Meshing Workflows: 
Workflow template files (.wft) are now saved by default whenever the mesh is saved. You can change the automatic creation of .wft files in Preferences. 
Journaling: 
When Ansys Fluent encounters an invalid input in a journal file that is being replayed, it now raises an error condition and aborts the journal processing. 
Turbulence: 
The value of kappa used in the Spalart-Allmaras model for interior terms was inconsistent with the reference publications of the model. Fluent historically used a value of 0.4187, but to produce results consistent with the published model, the value should be 0.41. This issue was first addressed in a previous Fluent version and access to the kappa value was given in the GUI while keeping the old default of 0.4187. In Fluent 2024 R1, the default value is now changed to 0.41. 
Turbomachinery: 
For Blade Film Cooling, you can now specify stationary holes on the surfaces of a moving/rotating cell zone in transient cases. 
Boundaries previously referred to as "casings" in the Turbo Topology definition are now referred to as "shrouds." 
Density-Based Solver: 
The High Speed Numerics have been updated to increase the robustness of the Roe-FDS numerical flux against shock-instabilities and the carbuncle phenomenon. This modification may produce a slight solution change for cases combining Roe-FDS and HSN. 
Multiphase Models: 
Modeling of open channel flows in conjunction with the translation moving reference frame (MRF) has been improved resulting in more accurate and stable solution. In addition, a solution methodology has been suggested to provide better stability for high-speed hull simulations. 
Parallel Processing: 
Using dynamic process spawning now requires that you manually specify the interconnect as -pethernet for shared memory or distributed memory without InfiniBand, and -pib.ofed for distributed memory over InfiniBand. 
Refer to the Ansys, Inc. Release Notes for a full listing of the new features included in Ansys Fluent 2024 R1. 
> Fast-loading "/opt/crc/a/ansys/2024R1/v241/fluent/fluent24.1.0/addons/afd/lib/hdfio.bin"
Done.
WARNING: Rank:0 Machine d32cepyc205.crc.nd.edu has 51 % of RAM filled with file buffer caches.
This can cause potential performance issues. Please use -cflush flag to flush the cache. 


Reading from d32cepyc205.crc.nd.edu:"/tmp/1007972.1.long/worker-241760-67522/task.7/case.cas.h5" in NODE0 mode ...
  Reading mesh ...
      263237 cells,     1 cell zone  ...
         263237 polyhedra cells,  zone id: 900
     1517660 faces,     5 face zones ...
            514 polygonal pressure-far-field faces,  zone id: 17
            512 polygonal pressure-far-field faces,  zone id: 18
           4017 polygonal pressure-far-field faces,  zone id: 19
          30625 polygonal wall faces,  zone id: 20
        1481992 polygonal interior faces,  zone id: 899
     1099102 nodes,     1 node zone  ...
  Done.


Building...
     mesh
	auto partitioning mesh by Metis (fast),
	distributing mesh
		parts....,
		faces....,
		nodes....,
		cells....,
        bandwidth reduction using Reverse Cuthill-McKee: 67505/4420 = 15.2726
  Reading boundary layer flags ...
  Done.

     materials,
     interface,
     domains,
	mixture
     zones,
	inlet
	outlet
	farfield
	launchvehicle
	interior--solid
	solid
     parallel,
Done.
Warning: Pressure far-field boundary condition can only be used with ideal gas law.
  Please change either the boundary condition type or enable ideal gas law.
  Solver cannot proceed until this is fixed.
	Warning: Pressure far-field boundary condition can only be used with ideal gas law.
  Please change either the boundary condition type or enable ideal gas law.
  Solver cannot proceed until this is fixed.
	
> adjoint/                parallel/               server/
define/                 parametric-study/       solve/
display/                plot/                   surface/
exit                    preferences/            turbo-workflow/
file/                   print-license-usage     views/
mesh/                   report/

> air is a fluid

Density
no data required.


Note: Enabling energy equation as required by material density method.

> adjoint/                parallel/               server/
define/                 parametric-study/       solve/
display/                plot/                   surface/
exit                    preferences/            turbo-workflow/
file/                   print-license-usage     views/
mesh/                   report/

> 
> adjoint/                parallel/               server/
define/                 parametric-study/       solve/
display/                plot/                   surface/
exit                    preferences/            turbo-workflow/
file/                   print-license-usage     views/
mesh/                   report/

> 
> adjoint/                parallel/               server/
define/                 parametric-study/       solve/
display/                plot/                   surface/
exit                    preferences/            turbo-workflow/
file/                   print-license-usage     views/
mesh/                   report/

> (farfield outlet inlet)

> (farfield outlet inlet)

> (farfield outlet inlet)

> adjoint/                parallel/               server/
define/                 parametric-study/       solve/
display/                plot/                   surface/
exit                    preferences/            turbo-workflow/
file/                   print-license-usage     views/
mesh/                   report/

> (launchvehicle)

> adjoint/                parallel/               server/
define/                 parametric-study/       solve/
display/                plot/                   surface/
exit                    preferences/            turbo-workflow/
file/                   print-license-usage     views/
mesh/                   report/

> 
> 
> 
> 
> 
> 
> adjoint/                parallel/               server/
define/                 parametric-study/       solve/
display/                plot/                   surface/
exit                    preferences/            turbo-workflow/
file/                   print-license-usage     views/
mesh/                   report/

> 
> 
> 
> adjoint/                parallel/               server/
define/                 parametric-study/       solve/
display/                plot/                   surface/
exit                    preferences/            turbo-workflow/
file/                   print-license-usage     views/
mesh/                   report/

> 
> 
> 
> adjoint/                parallel/               server/
define/                 parametric-study/       solve/
display/                plot/                   surface/
exit                    preferences/            turbo-workflow/
file/                   print-license-usage     views/
mesh/                   report/

> 
> adjoint/                parallel/               server/
define/                 parametric-study/       solve/
display/                plot/                   surface/
exit                    preferences/            turbo-workflow/
file/                   print-license-usage     views/
mesh/                   report/

> 
Initialize using the hybrid initialization method.

Checking case topology... 
-This case has multiple farfield bc 
-Case will be initialized with constant parameters

	iter		scalar-0

	1		1.000000e+00
	2		4.105880e-04
	3		5.531519e-05
	4		9.395687e-06
	5		2.049654e-06
	6		5.059524e-07
	7		1.497333e-07
	8		6.506503e-08
	9		3.270408e-08
	10		1.941834e-08

Hybrid initialization is done.

Note: Settings to improve the robustness of pathline and
      particle tracking have been automatically enabled.


> 
  iter  continuity  x-velocity  y-velocity  z-velocity      energy           k       omega     time/iter
     1  1.0000e+00  2.2596e-05  3.4361e-05  3.6325e-05  3.9659e-07  8.2471e-01  4.4823e-01  4:05:26  499
     2  9.0388e-01  1.7708e-05  2.6086e-05  2.1056e-05  3.2552e-07  7.3264e-01  4.2087e-01  4:05:45  498
     3  1.0000e+00  1.6704e-05  2.7362e-05  1.6091e-05  2.6169e-07  5.9193e-01  3.8170e-01  4:04:30  497
     4  1.0000e+00  1.7648e-05  5.2918e-05  1.2651e-05  4.9633e-07  3.7285e-01  3.2847e-01  4:04:02  496
     5  1.0000e+00  3.0691e-05  1.3088e-04  2.4024e-05  9.9335e-07  1.6223e-01  2.6420e-01  4:05:03  495
     6  2.8826e+00  8.2638e-05  3.7194e-04  5.7048e-05  5.1510e-06  1.0617e-01  1.9930e-01  4:06:21  494
     7  8.4962e+00  2.6693e-04  1.1669e-03  1.6335e-04  1.0822e-05  2.1929e-01  1.6320e-01  4:04:51  493
     8  2.0886e+01  6.0181e-04  2.7640e-03  4.4422e-04  1.2831e-04  4.2139e-01  2.1687e-01  4:02:43  492
     9  3.9795e+01  2.1661e-03  7.5183e-03  1.1162e-03  1.4292e-04  4.8783e-01  2.5969e-01  4:01:59  491
    10  5.1381e+01  2.3922e-03  7.5480e-03  1.4755e-03  2.4543e-04  5.1237e-01  2.5929e-01  3:54:55  490
    11  6.4964e+01  5.0226e-03  1.2349e-02  2.1671e-03  2.6041e-04  5.0349e-01  2.8002e-01  3:53:56  489

  iter  continuity  x-velocity  y-velocity  z-velocity      energy           k       omega     time/iter
    12  7.9347e+01  4.9586e-03  1.3608e-02  2.9846e-03  3.3870e-04  5.5372e-01  3.1355e-01  3:47:34  488
    13  8.3810e+01  7.1964e-03  1.6742e-02  2.8572e-03  4.2068e-04  5.9273e-01  3.4927e-01  3:47:43  487
    14  1.0432e+02  8.5287e-03  2.0312e-02  3.9911e-03  5.3928e-04  5.7880e-01  3.4029e-01  3:46:47  486
    15  1.0851e+02  9.5160e-03  2.5858e-02  3.8838e-03  7.3127e-04  6.3440e-01  3.9684e-01  3:47:51  485
    16  1.3837e+02  1.2221e-02  3.3128e-02  5.6230e-03  8.3588e-04  6.5432e-01  3.9983e-01  3:47:26  484
    17  1.2707e+02  1.3316e-02  3.5193e-02  5.3416e-03  8.4723e-04  5.8813e-01  3.8014e-01  3:47:03  483
    18  1.5331e+02  1.4793e-02  4.0221e-02  6.1455e-03  9.6280e-04  6.3089e-01  3.9384e-01  3:46:51  482
    19  1.5235e+02  1.6598e-02  4.6695e-02  6.2762e-03  1.1333e-03  6.0404e-01  4.0205e-01  3:46:56  481
    20  1.8005e+02  2.3304e-02  5.0610e-02  8.3473e-03  1.3885e-03  6.4566e-01  4.1404e-01  3:46:02  480
    21  1.6886e+02  2.1599e-02  5.1466e-02  8.4927e-03  1.3662e-03  5.8493e-01  3.9362e-01  3:43:28  479
    22  1.8033e+02  2.4432e-02  6.1233e-02  1.0150e-02  1.4571e-03  5.7855e-01  3.7325e-01  3:40:26  478

  iter  continuity  x-velocity  y-velocity  z-velocity      energy           k       omega     time/iter
    23  1.7986e+02  2.8836e-02  5.8849e-02  1.1223e-02  1.6518e-03  5.4051e-01  3.7564e-01  3:39:29  477
    24  2.0747e+02  3.3316e-02  6.7830e-02  1.2497e-02  1.8947e-03  6.4069e-01  4.2251e-01  3:39:48  476
    25  1.8976e+02  3.4764e-02  6.2564e-02  1.3737e-02  1.7343e-03  5.7116e-01  3.8711e-01  3:39:42  475
    26  2.2135e+02  4.3427e-02  7.5960e-02  1.5560e-02  1.9956e-03  6.7576e-01  4.5474e-01  3:41:26  474
    27  2.1885e+02  4.0533e-02  6.6094e-02  1.5141e-02  2.8002e-03  6.3161e-01  4.3014e-01  3:40:32  473
    28  2.2839e+02  5.2229e-02  8.8493e-02  1.7851e-02  4.1766e-03  6.6455e-01  4.4905e-01  3:40:28  472
    29  2.4725e+02  5.9326e-02  9.3172e-02  1.8942e-02  7.4197e-03  6.1808e-01  4.3417e-01  3:39:52  471
    30  2.5332e+02  7.5485e-02  8.0392e-02  2.2316e-02  3.4976e-03  6.9544e-01  4.9089e-01  3:37:53  470
    31  2.5669e+02  5.3261e-02  8.6443e-02  2.0618e-02  3.7303e-03  7.6805e-01  5.1136e-01  3:38:07  469
    32  2.6751e+02  5.9569e-02  9.2905e-02  2.3249e-02  4.5200e-03  6.8494e-01  4.3053e-01  3:36:30  468
    33  2.7631e+02  5.7523e-02  9.3608e-02  2.1819e-02  6.3189e-03  6.9269e-01  4.6869e-01  3:37:03  467

  iter  continuity  x-velocity  y-velocity  z-velocity      energy           k       omega     time/iter
    34  2.8450e+02  6.8730e-02  8.5056e-02  2.1219e-02  5.3800e-03  6.8714e-01  4.8836e-01  3:36:43  466
    35  2.9533e+02  7.1441e-02  8.2254e-02  2.0820e-02  4.5295e-03  7.3179e-01  4.6932e-01  3:33:06  465
    36  3.0209e+02  5.3962e-02  8.8356e-02  2.1879e-02  6.6678e-03  7.7522e-01  5.7085e-01  3:34:24  464
    37  3.1048e+02  7.1283e-02  8.5982e-02  2.2322e-02  6.1946e-03  8.5166e-01  4.8727e-01  3:35:46  463
    38  3.2804e+02  6.0548e-02  8.4256e-02  2.1514e-02  7.1160e-03  8.0966e-01  4.9497e-01  3:34:47  462
    39  3.4509e+02  7.8525e-02  9.1984e-02  2.2698e-02  5.4144e-03  7.3264e-01  4.7984e-01  3:34:58  461
    40  3.5526e+02  6.0559e-02  9.1245e-02  2.2878e-02  5.8588e-03  6.6899e-01  4.7272e-01  3:34:52  460
    41  3.6202e+02  5.5475e-02  9.2818e-02  2.1934e-02  5.3365e-03  7.6478e-01  5.2499e-01  3:31:38  459
    42  3.7583e+02  5.7967e-02  9.5197e-02  2.4087e-02  5.8217e-03  8.5651e-01  5.4521e-01  3:31:52  458
    43  3.7832e+02  5.9515e-02  8.9792e-02  2.2622e-02  6.3013e-03  7.9002e-01  4.7540e-01  3:32:44  457
    44  4.1024e+02  6.0996e-02  9.4771e-02  2.5620e-02  8.4149e-03  7.4022e-01  5.0706e-01  3:32:10  456

  iter  continuity  x-velocity  y-velocity  z-velocity      energy           k       omega     time/iter
    45  4.0341e+02  4.9132e-02  9.7963e-02  2.3208e-02  7.6638e-03  8.9115e-01  6.0852e-01  3:32:55  455
    46  4.2649e+02  6.6976e-02  9.8705e-02  2.5045e-02  8.7005e-03  9.0643e-01  5.2059e-01  3:33:21  454
    47  4.2389e+02  5.9692e-02  8.4343e-02  2.2099e-02  6.3357e-03  8.8571e-01  5.0037e-01  3:32:34  453
    48  4.6042e+02  6.4384e-02  9.5495e-02  2.5133e-02  7.7524e-03  9.2747e-01  5.3243e-01  3:31:29  452
    49  4.4988e+02  5.6234e-02  1.0159e-01  2.4682e-02  6.8020e-03  8.4552e-01  4.7204e-01  3:30:29  451
    50  4.7819e+02  6.1565e-02  9.2105e-02  2.4125e-02  8.5288e-03  9.0809e-01  5.4325e-01  3:30:15  450
    51  4.7459e+02  5.8847e-02  8.8366e-02  2.3687e-02  2.1361e-02  8.3485e-01  4.8481e-01  3:29:12  449
    52  5.0052e+02  8.8867e-02  8.9735e-02  2.4492e-02  9.0745e-03  8.1926e-01  5.1117e-01  3:27:30  448
    53  5.0609e+02  6.0702e-02  9.6372e-02  2.4007e-02  1.1175e-02  8.7273e-01  5.4082e-01  3:27:40  447
    54  5.5429e+02  8.0747e-02  8.5382e-02  2.3198e-02  8.6467e-03  8.3590e-01  4.9489e-01  3:25:42  446
    55  5.4843e+02  6.2859e-02  8.8978e-02  2.3835e-02  9.3425e-03  8.3835e-01  5.3045e-01  3:25:09  445

  iter  continuity  x-velocity  y-velocity  z-velocity      energy           k       omega     time/iter
    56  5.8835e+02  6.3739e-02  9.5761e-02  2.5104e-02  9.9080e-03  8.3304e-01  5.0843e-01  3:25:39  444
    57  5.6815e+02  6.3562e-02  8.9427e-02  2.4587e-02  9.2337e-03  8.7310e-01  5.3042e-01  3:25:02  443
    58  6.2308e+02  7.0989e-02  9.0941e-02  2.5831e-02  1.1823e-02  9.1248e-01  5.4077e-01  3:21:04  442
    59  6.2562e+02  7.5026e-02  7.6955e-02  2.3805e-02  1.2015e-02  8.1842e-01  4.7733e-01  3:24:22  441
    60  6.4593e+02  6.5190e-02  9.2578e-02  2.3284e-02  8.2809e-02  8.8093e-01  5.5085e-01  3:23:00  440
    61  6.7249e+02  1.1539e-01  7.8916e-02  2.5219e-02  2.4658e-02  1.0681e+00  6.3721e-01  3:25:03  439
    62  7.0702e+02  8.3910e-02  7.9211e-02  2.4620e-02  1.1518e-02  9.1344e-01  5.0356e-01  3:24:50  438
    63  6.9526e+02  7.0292e-02  8.5284e-02  2.5321e-02  1.3540e-02  9.3148e-01  5.2424e-01  3:24:26  437
    64  7.0601e+02  6.6070e-02  9.5110e-02  2.4827e-02  1.0764e-02  8.6014e-01  4.8368e-01  3:23:14  436
    65  7.3799e+02  7.0261e-02  9.3927e-02  2.5819e-02  1.1960e-02  9.3374e-01  5.3055e-01  3:24:28  435
    66  7.5248e+02  6.8922e-02  8.7155e-02  2.7017e-02  1.1908e-02  8.4302e-01  4.8942e-01  3:22:07  434

  iter  continuity  x-velocity  y-velocity  z-velocity      energy           k       omega     time/iter
    67  7.8141e+02  6.9392e-02  8.9927e-02  2.6516e-02  1.2789e-02  9.2993e-01  5.3885e-01  3:21:43  433
    68  7.5248e+02  5.8871e-02  9.0698e-02  2.5233e-02  1.3191e-02  9.1499e-01  5.3557e-01  3:20:05  432
    69  8.4391e+02  6.6108e-02  9.5213e-02  2.6648e-02  1.9873e-02  9.2335e-01  5.3150e-01  3:19:47  431
    70  8.0680e+02  6.9718e-02  7.6719e-02  2.5612e-02  1.1728e-02  9.1221e-01  5.3501e-01  3:19:56  430
    71  8.8716e+02  6.7198e-02  9.1663e-02  2.8075e-02  1.3877e-02  1.0135e+00  5.7029e-01  3:19:23  429
    72  8.5319e+02  6.5338e-02  9.2812e-02  2.8572e-02  1.4163e-02  8.9545e-01  4.9455e-01  3:19:40  428
    73  9.0336e+02  7.5588e-02  9.6930e-02  2.9121e-02  1.5407e-02  1.0010e+00  5.6445e-01  3:19:23  427
    74  8.8093e+02  7.2997e-02  8.7561e-02  2.8586e-02  1.3543e-02  9.0730e-01  4.9933e-01  3:19:08  426
    75  9.7433e+02  6.9546e-02  9.6164e-02  2.7219e-02  1.9895e-02  1.0478e+00  5.9939e-01  3:19:01  425
    76  9.0726e+02  6.3231e-02  8.7669e-02  2.6648e-02  1.8674e-02  9.7645e-01  5.3115e-01  3:20:42  424
    77  1.0364e+03  6.8745e-02  1.0529e-01  2.9577e-02  1.8611e-02  1.0193e+00  5.5900e-01  3:19:50  423

  iter  continuity  x-velocity  y-velocity  z-velocity      energy           k       omega     time/iter
    78  9.8841e+02  6.5770e-02  9.2545e-02  2.6268e-02  1.5188e-02  9.4432e-01  5.2395e-01  3:19:30  422
    79  1.0396e+03  7.9566e-02  1.0255e-01  3.2174e-02  1.4621e-02  9.7060e-01  5.2980e-01  3:19:36  421
    80  1.0001e+03  6.3586e-02  9.3480e-02  2.8841e-02  1.8973e-02  9.5179e-01  5.1633e-01  3:18:39  420
    81  1.1503e+03  7.2382e-02  1.0153e-01  3.0035e-02  2.3899e-02  1.0163e+00  5.5384e-01  3:17:42  419
    82  1.0433e+03  7.3024e-02  8.1368e-02  2.7991e-02  1.9442e-02  9.5937e-01  5.2541e-01  3:17:11  418
    83  1.1356e+03  6.7365e-02  1.0073e-01  2.9973e-02  1.8568e-02  9.8064e-01  5.2653e-01  3:17:26  417
    84  1.1218e+03  5.7334e-02  9.5455e-02  2.7487e-02  1.9053e-02  9.7551e-01  5.3079e-01  3:16:54  416
    85  1.2415e+03  6.4475e-02  1.0188e-01  2.9016e-02  2.1931e-02  1.0144e+00  5.5682e-01  3:18:09  415
    86  1.1772e+03  6.5623e-02  9.1099e-02  2.8066e-02  1.7266e-02  9.5400e-01  5.1699e-01  3:17:12  414
    87  1.2533e+03  6.8280e-02  1.0696e-01  3.1668e-02  2.0715e-02  1.0014e+00  5.5041e-01  3:17:55  413
    88  1.2343e+03  5.9559e-02  9.2082e-02  2.7607e-02  2.5995e-02  9.6363e-01  5.1528e-01  3:17:34  412

  iter  continuity  x-velocity  y-velocity  z-velocity      energy           k       omega     time/iter
    89  1.3665e+03  7.7918e-02  9.4987e-02  3.1623e-02  2.4025e-02  1.0570e+00  5.6952e-01  3:17:20  411
    90  1.3279e+03  6.5928e-02  9.6590e-02  2.9489e-02  1.9475e-02  9.5740e-01  5.2125e-01  3:16:04  410
    91  1.3457e+03  6.5516e-02  9.1505e-02  2.7018e-02  2.7432e-02  1.0634e+00  5.6602e-01  3:13:14  409
    92  1.3533e+03  5.5166e-02  1.0695e-01  2.9491e-02  2.3878e-02  9.8904e-01  5.2637e-01  3:14:19  408
    93  1.5727e+03  7.0666e-02  1.1477e-01  3.3652e-02  2.9438e-02  1.0316e+00  5.4901e-01  3:12:46  407
    94  1.4463e+03  7.2613e-02  8.2318e-02  2.9891e-02  1.5974e-02  9.3307e-01  4.9583e-01  3:11:58  406
    95  1.5490e+03  7.6679e-02  1.0842e-01  3.5100e-02  2.5281e-02  1.1166e+00  5.7682e-01  3:10:53  405
    96  1.4542e+03  6.8506e-02  9.2128e-02  2.9339e-02  2.4799e-02  9.5533e-01  5.0606e-01  3:10:29  404
    97  1.6066e+03  7.9758e-02  9.9356e-02  3.1484e-02  2.4069e-02  1.0732e+00  5.6376e-01  3:09:56  403
    98  1.5744e+03  6.5711e-02  1.0076e-01  3.0195e-02  2.5046e-02  1.0040e+00  5.3776e-01  3:09:00  402
    99  1.6649e+03  7.3889e-02  9.7283e-02  3.0872e-02  2.3913e-02  1.0556e+00  5.6902e-01  3:06:58  401

  iter  continuity  x-velocity  y-velocity  z-velocity      energy           k       omega     time/iter
   100  1.5658e+03  5.9282e-02  9.3779e-02  2.8292e-02  2.2206e-02  9.9162e-01  5.2619e-01  3:07:13  400
   101  1.8290e+03  7.4404e-02  1.1396e-01  3.3832e-02  2.6885e-02  1.0341e+00  5.4613e-01  3:07:06  399
   102  1.6730e+03  6.7585e-02  8.7733e-02  2.8757e-02  1.8629e-02  9.4150e-01  4.9875e-01  3:05:47  398
   103  1.8564e+03  7.6975e-02  1.1080e-01  3.2691e-02  2.8298e-02  1.1441e+00  5.8451e-01  3:05:18  397
   104  1.6777e+03  6.6759e-02  9.1222e-02  2.8383e-02  2.6418e-02  9.7721e-01  5.1456e-01  3:06:00  396
   105  1.9063e+03  8.0415e-02  9.3637e-02  3.1065e-02  2.3375e-02  1.0726e+00  5.7086e-01  3:05:31  395
   106  1.8821e+03  6.5022e-02  9.6662e-02  2.9545e-02  2.8131e-02  1.0255e+00  5.4775e-01  3:06:30  394
   107  1.9781e+03  6.4943e-02  9.9183e-02  2.8956e-02  2.6608e-02  9.9108e-01  5.2445e-01  3:07:34  393
   108  1.8011e+03  5.8399e-02  9.4693e-02  2.8568e-02  2.6150e-02  1.0162e+00  5.3356e-01  3:06:33  392
   109  2.0639e+03  8.1535e-02  9.7625e-02  3.3267e-02  2.9681e-02  1.0426e+00  5.5065e-01  3:05:14  391
   110  1.9553e+03  6.2216e-02  9.4264e-02  2.7819e-02  1.9799e-02  1.0043e+00  5.3982e-01  3:04:46  390

  iter  continuity  x-velocity  y-velocity  z-velocity      energy           k       omega     time/iter
   111  2.2662e+03  7.1687e-02  1.0531e-01  3.2366e-02  3.6623e-02  1.0548e+00  5.6355e-01  3:04:28  389
   112  2.0690e+03  6.1242e-02  9.0009e-02  2.8419e-02  2.7697e-02  9.6804e-01  5.0878e-01  3:05:01  388
   113  2.2546e+03  7.7353e-02  9.6336e-02  3.2241e-02  3.0070e-02  1.2089e+00  6.2507e-01  3:02:23  387
   114  2.3486e+03  6.8520e-02  1.0528e-01  3.1339e-02  2.6817e-02  9.9421e-01  5.2656e-01  3:02:04  386
   115  2.3311e+03  5.6732e-02  1.0163e-01  2.9074e-02  2.3982e-02  1.0167e+00  5.3415e-01  3:01:46  385
   116  2.2841e+03  6.6517e-02  1.0013e-01  3.3173e-02  2.8408e-02  1.0548e+00  5.6011e-01  3:02:57  384
   117  2.4494e+03  7.1951e-02  9.1125e-02  3.3281e-02  2.7100e-02  9.8223e-01  5.1149e-01  3:02:08  383
   118  2.4372e+03  6.2235e-02  9.6425e-02  2.8935e-02  2.1489e-02  1.0110e+00  5.3066e-01  3:01:32  382
   119  2.4405e+03  6.5558e-02  1.0509e-01  3.3611e-02  3.3624e-02  1.0595e+00  5.5368e-01  3:02:15  381
   120  2.4361e+03  6.8396e-02  9.3682e-02  2.9066e-02  2.7657e-02  1.0138e+00  5.2989e-01  3:02:43  380
   121  2.5955e+03  7.3839e-02  9.2781e-02  3.1766e-02  4.1499e-02  1.1153e+00  5.8926e-01  3:01:36  379

  iter  continuity  x-velocity  y-velocity  z-velocity      energy           k       omega     time/iter
   122  2.7511e+03  6.7479e-02  1.0617e-01  3.0742e-02  2.9855e-02  1.0152e+00  5.3676e-01  3:00:56  378
   123  2.6277e+03  5.8768e-02  1.0350e-01  2.9760e-02  2.8600e-02  1.0280e+00  5.4277e-01  3:00:50  377
   124  2.6902e+03  6.7844e-02  1.0679e-01  3.1464e-02  2.9531e-02  1.0858e+00  5.7361e-01  3:01:21  376
   125  2.8370e+03  7.1886e-02  9.5309e-02  3.1471e-02  3.3505e-02  9.9606e-01  5.2258e-01  3:00:56  375
   126  2.9048e+03  6.2237e-02  1.0933e-01  3.1447e-02  2.0911e-02  9.9068e-01  5.1646e-01  3:01:53  374
   127  2.9554e+03  6.8450e-02  1.0403e-01  3.5809e-02  3.6532e-02  1.1134e+00  5.7656e-01  3:00:28  373
   128  2.7571e+03  6.5021e-02  9.4911e-02  3.0278e-02  2.4992e-02  1.0129e+00  5.3215e-01  3:01:15  372
   129  2.9241e+03  7.0648e-02  1.0138e-01  3.3027e-02  3.3534e-02  1.0728e+00  5.5714e-01  2:59:46  371
   130  3.0892e+03  6.2918e-02  1.0744e-01  3.2514e-02  2.4884e-02  1.0004e+00  5.2176e-01  3:00:02  370
   131  3.0620e+03  6.3965e-02  1.0340e-01  3.2418e-02  2.6561e-02  1.0436e+00  5.4325e-01  2:58:51  369
   132  3.0675e+03  7.6089e-02  1.0907e-01  3.6046e-02  2.8831e-02  1.0655e+00  5.5623e-01  2:58:00  368

  iter  continuity  x-velocity  y-velocity  z-velocity      energy           k       omega     time/iter
   133  3.0302e+03  6.9439e-02  9.9120e-02  3.2500e-02  2.8638e-02  1.0076e+00  5.2679e-01  2:57:10  367
   134  3.2079e+03  6.9522e-02  1.1281e-01  3.4905e-02  2.5260e-02  1.0287e+00  5.3750e-01  2:56:18  366
   135  3.4934e+03  6.5413e-02  1.0600e-01  3.3882e-02  4.4133e-02  1.0854e+00  5.6895e-01  2:55:20  365
   136  3.1473e+03  7.1768e-02  8.3943e-02  2.9083e-02  2.2558e-02  1.0122e+00  5.2582e-01  2:54:06  364
   137  3.4196e+03  6.9012e-02  1.0165e-01  3.3954e-02  3.4661e-02  1.0529e+00  5.4616e-01  2:53:43  363
   138  3.3519e+03  6.3091e-02  1.0477e-01  3.2012e-02  2.7316e-02  1.0084e+00  5.2145e-01  2:52:42  362
   139  3.5429e+03  6.7169e-02  1.0445e-01  3.3181e-02  2.8020e-02  1.0701e+00  5.5115e-01  2:52:11  361
   140  3.3487e+03  6.6166e-02  9.6736e-02  3.2638e-02  3.2175e-02  1.0416e+00  5.3886e-01  2:51:35  360
   141  3.5919e+03  6.6996e-02  1.0111e-01  3.2763e-02  3.8478e-02  1.0553e+00  5.5253e-01  2:50:56  359
   142  3.5748e+03  6.5570e-02  1.0793e-01  3.2993e-02  2.9838e-02  1.0312e+00  5.5239e-01  2:51:28  358
   143  3.6986e+03  6.4305e-02  9.7426e-02  3.0455e-02  3.4421e-02  1.0365e+00  5.4175e-01  2:51:40  357

  iter  continuity  x-velocity  y-velocity  z-velocity      energy           k       omega     time/iter
   144  3.4080e+03  7.5328e-02  8.8066e-02  3.2250e-02  2.9797e-02  1.0022e+00  5.2072e-01  2:50:38  356
   145  3.8646e+03  8.3842e-02  1.0468e-01  3.4867e-02  4.0429e-02  1.0489e+00  5.4714e-01  2:47:41  355
   146  3.6772e+03  7.1991e-02  1.0268e-01  3.1553e-02  2.7946e-02  9.8479e-01  5.0590e-01  2:48:11  354
   147  3.7850e+03  6.8308e-02  1.1084e-01  3.1562e-02  5.0574e-02  1.1682e+00  5.8565e-01  2:47:40  353
   148  3.7043e+03  8.3227e-02  9.3903e-02  3.1375e-02  3.3085e-02  1.0199e+00  5.2765e-01  2:47:09  352
   149  3.8656e+03  6.6518e-02  1.0440e-01  3.0021e-02  3.1957e-02  1.0589e+00  5.5079e-01  2:46:34  351
   150  3.8221e+03  6.3701e-02  1.1653e-01  3.2952e-02  3.2071e-02  1.0089e+00  5.2458e-01  2:47:25  350
   151  3.7903e+03  7.2166e-02  1.0799e-01  3.2566e-02  3.5220e-02  1.0287e+00  5.3389e-01  2:46:12  349
   152  3.5471e+03  8.5577e-02  1.0527e-01  3.3917e-02  2.5834e-02  1.0515e+00  5.4514e-01  2:45:22  348
   153  3.8844e+03  8.0136e-02  1.1350e-01  3.4611e-02  3.3272e-02  1.0732e+00  5.5656e-01  2:44:11  347
   154  3.7102e+03  6.5195e-02  9.9236e-02  3.0071e-02  2.6889e-02  1.0042e+00  5.1753e-01  2:44:46  346

  iter  continuity  x-velocity  y-velocity  z-velocity      energy           k       omega     time/iter
   155  4.0660e+03  6.7929e-02  1.1666e-01  3.3909e-02  3.7345e-02  1.1006e+00  5.6428e-01  2:43:57  345
   156  3.7190e+03  7.5261e-02  9.0945e-02  2.9911e-02  3.3598e-02  1.0078e+00  5.2036e-01  2:43:11  344
   157  4.1102e+03  7.1039e-02  9.9682e-02  3.1771e-02  3.5162e-02  1.1022e+00  5.7326e-01  2:44:02  343
   158  3.8687e+03  7.1486e-02  1.1203e-01  3.2295e-02  4.0763e-02  9.9933e-01  5.1211e-01  2:42:54  342
   159  3.9855e+03  7.6719e-02  1.1562e-01  3.1983e-02  3.6818e-02  1.0633e+00  5.4580e-01  2:39:08  341
   160  3.8310e+03  8.3216e-02  1.0209e-01  3.3282e-02  2.8056e-02  1.0255e+00  5.2985e-01  2:38:48  340
   161  4.1499e+03  7.6332e-02  1.1221e-01  3.4353e-02  3.8337e-02  1.0333e+00  5.3219e-01  2:38:36  339
   162  3.9029e+03  6.7785e-02  1.1350e-01  3.2169e-02  3.4926e-02  1.0450e+00  5.4341e-01  2:35:00  338
   163  4.2986e+03  7.0592e-02  1.0931e-01  3.0587e-02  3.4762e-02  1.1087e+00  5.7075e-01  2:34:52  337
   164  3.9802e+03  6.7087e-02  1.0551e-01  3.0807e-02  2.8625e-02  1.0203e+00  5.2415e-01  2:33:32  336
   165  4.2633e+03  7.2008e-02  1.0945e-01  3.4983e-02  3.9087e-02  1.0761e+00  5.5962e-01  2:32:25  335

  iter  continuity  x-velocity  y-velocity  z-velocity      energy           k       omega     time/iter
   166  4.1510e+03  7.3051e-02  1.1079e-01  3.3176e-02  3.8724e-02  1.0430e+00  5.3665e-01  2:31:19  334
   167  4.2463e+03  8.5583e-02  1.0271e-01  3.5115e-02  3.4440e-02  1.0757e+00  5.5685e-01  2:31:57  333
   168  4.1034e+03  7.7349e-02  1.0769e-01  3.3966e-02  3.0044e-02  9.8505e-01  5.1092e-01  2:33:02  332
   169  4.2354e+03  6.9678e-02  1.1207e-01  3.2495e-02  3.0646e-02  1.0427e+00  5.3801e-01  2:33:50  331
   170  4.2662e+03  7.1536e-02  1.1422e-01  3.5642e-02  3.4950e-02  1.0488e+00  5.3663e-01  2:35:15  330
   171  4.3450e+03  7.5016e-02  9.8318e-02  3.2547e-02  3.9360e-02  1.0770e+00  5.5417e-01  2:35:03  329
   172  4.2067e+03  6.9887e-02  9.9772e-02  3.1593e-02  3.5269e-02  1.0176e+00  5.2452e-01  2:34:02  328
   173  4.3354e+03  7.3877e-02  1.0536e-01  3.3311e-02  3.2258e-02  1.0602e+00  5.4996e-01  2:31:15  327
   174  4.3111e+03  7.4256e-02  1.1339e-01  3.6189e-02  3.4313e-02  1.0251e+00  5.2613e-01  2:28:32  326
   175  4.3980e+03  8.8908e-02  1.0177e-01  3.3420e-02  3.0928e-02  1.0816e+00  5.5822e-01  2:30:46  325
   176  4.2565e+03  7.5685e-02  1.1219e-01  3.4798e-02  2.7072e-02  9.9044e-01  5.1615e-01  2:30:46  324

  iter  continuity  x-velocity  y-velocity  z-velocity      energy           k       omega     time/iter
   177  4.4418e+03  7.7553e-02  1.0738e-01  3.4133e-02  3.5713e-02  1.0584e+00  5.5347e-01  2:27:05  323
   178  4.3877e+03  6.8902e-02  1.1818e-01  3.4611e-02  3.7748e-02  1.0364e+00  5.3128e-01  2:23:56  322
   179  4.6930e+03  7.6170e-02  1.0841e-01  3.2455e-02  3.5728e-02  1.0683e+00  5.5017e-01  2:25:27  321
   180  4.3555e+03  6.7575e-02  1.0626e-01  3.3549e-02  2.7973e-02  1.0207e+00  5.3152e-01  2:27:27  320
   181  4.8477e+03  6.7889e-02  1.1215e-01  3.5303e-02  3.5861e-02  1.0583e+00  5.5155e-01  2:28:29  319
   182  4.3619e+03  7.0596e-02  9.7400e-02  3.2218e-02  2.9977e-02  1.0283e+00  5.3315e-01  2:26:21  318
   183  4.8080e+03  8.7663e-02  1.0357e-01  3.7227e-02  3.3601e-02  1.0747e+00  5.5475e-01  2:28:15  317
   184  4.6305e+03  7.2762e-02  9.7408e-02  3.4601e-02  2.8005e-02  9.9039e-01  5.1497e-01  2:26:28  316
   185  5.4361e+03  8.2226e-02  1.1942e-01  3.5027e-02  3.5472e-02  1.1015e+00  5.6548e-01  2:27:03  315
   186  4.5563e+03  6.2839e-02  9.7483e-02  3.1968e-02  3.3360e-02  1.0239e+00  5.2753e-01  2:24:56  314
   187  5.2728e+03  8.7866e-02  1.1383e-01  3.5976e-02  3.5833e-02  1.1555e+00  5.9412e-01  2:25:42  313

  iter  continuity  x-velocity  y-velocity  z-velocity      energy           k       omega     time/iter
   188  4.6913e+03  6.5470e-02  8.6843e-02  3.0615e-02  2.6955e-02  9.9751e-01  5.1399e-01  2:23:24  312
   189  5.6741e+03  7.0238e-02  1.2080e-01  3.7023e-02  3.9775e-02  1.0653e+00  5.4709e-01  2:23:54  311
   190  4.8268e+03  6.9030e-02  9.6043e-02  3.3634e-02  3.4830e-02  1.0020e+00  5.1638e-01  2:22:01  310
   191  5.7137e+03  8.9461e-02  1.0962e-01  3.7653e-02  3.3510e-02  1.1036e+00  5.5865e-01  2:24:32  309
   192  4.8831e+03  6.5786e-02  9.3042e-02  3.1611e-02  3.3309e-02  1.0012e+00  5.1515e-01  2:22:03  308
   193  5.9866e+03  7.9941e-02  1.1012e-01  3.3033e-02  3.6853e-02  1.1611e+00  5.9978e-01  2:22:26  307
   194  5.0174e+03  5.9872e-02  8.9103e-02  3.1507e-02  2.6506e-02  1.0116e+00  5.1791e-01  2:20:19  306
   195  6.2025e+03  8.2047e-02  1.0184e-01  3.4942e-02  3.4681e-02  1.1377e+00  5.7887e-01  2:20:23  305
   196  5.2275e+03  5.0012e-02  8.0465e-02  2.6993e-02  2.5134e-02  9.7654e-01  5.0344e-01  2:18:37  304
   197  6.3719e+03  7.4258e-02  1.0703e-01  3.3562e-02  3.4159e-02  1.1729e+00  5.7929e-01  2:19:31  303
   198  5.5656e+03  6.2814e-02  8.6659e-02  3.3693e-02  3.2754e-02  1.0180e+00  5.2390e-01  2:17:35  302

  iter  continuity  x-velocity  y-velocity  z-velocity      energy           k       omega     time/iter
   199  6.5138e+03  8.2680e-02  1.0072e-01  3.6721e-02  3.0226e-02  1.0831e+00  5.4819e-01  2:18:32  301
   200  5.7457e+03  5.7202e-02  8.5314e-02  2.8807e-02  2.8783e-02  1.0113e+00  5.2535e-01  2:16:53  300
   201  7.4203e+03  6.5481e-02  1.1530e-01  3.2904e-02  4.2831e-02  1.0914e+00  5.6363e-01  2:17:11  299
   202  5.8669e+03  5.2783e-02  8.0382e-02  2.6977e-02  2.6383e-02  1.0139e+00  5.1979e-01  2:15:10  298
   203  7.7046e+03  8.5595e-02  1.1129e-01  4.1351e-02  3.3892e-02  1.1440e+00  5.8666e-01  2:15:48  297
   204  6.3531e+03  5.3834e-02  7.2420e-02  2.6141e-02  3.0302e-02  9.7713e-01  5.0143e-01  2:13:33  296
   205  8.1675e+03  7.1395e-02  1.2590e-01  3.6092e-02  4.0755e-02  1.2516e+00  6.2553e-01  2:15:11  295
   206  6.4230e+03  6.2032e-02  8.0423e-02  3.0122e-02  2.5754e-02  1.0148e+00  5.1970e-01  2:13:51  294
   207  8.2719e+03  8.5933e-02  1.1737e-01  4.3828e-02  3.1875e-02  1.0840e+00  5.5002e-01  2:15:38  293
   208  7.1886e+03  5.4329e-02  8.8411e-02  3.0958e-02  2.7073e-02  9.8408e-01  5.0895e-01  2:11:07  292
   209  9.1781e+03  7.4386e-02  1.1066e-01  3.6100e-02  3.8199e-02  1.1007e+00  5.5745e-01  2:09:47  291

  iter  continuity  x-velocity  y-velocity  z-velocity      energy           k       omega     time/iter
   210  6.8001e+03  6.1273e-02  7.6836e-02  2.8225e-02  2.0448e-02  1.0166e+00  5.2115e-01  2:09:23  290
   211  8.5546e+03  7.0764e-02  1.0109e-01  3.5533e-02  3.0652e-02  1.1407e+00  5.8461e-01  2:06:48  289
   212  7.5832e+03  5.2791e-02  7.5907e-02  2.6428e-02  1.8537e-02  9.8129e-01  5.0346e-01  2:05:24  288
   213  9.7554e+03  6.0556e-02  9.0937e-02  3.0200e-02  3.4823e-02  1.1291e+00  5.6965e-01  2:04:35  287
   214  7.2096e+03  5.8552e-02  6.5102e-02  2.5744e-02  2.3326e-02  1.0015e+00  5.1502e-01  2:03:09  286
   215  9.4820e+03  6.5014e-02  8.4455e-02  3.1033e-02  3.1017e-02  1.1190e+00  5.6369e-01  2:01:11  285
   216  8.1137e+03  4.9949e-02  7.1300e-02  2.5128e-02  2.2499e-02  9.8993e-01  5.0995e-01  1:59:36  284
   217  1.0456e+04  5.9565e-02  1.0076e-01  3.3147e-02  4.0643e-02  1.1706e+00  5.9690e-01  1:58:52  283
   218  8.4620e+03  5.6474e-02  7.4960e-02  2.9276e-02  2.5390e-02  9.9520e-01  5.1451e-01  1:59:03  282
   219  1.1326e+04  7.4077e-02  1.0097e-01  3.9294e-02  3.6247e-02  1.1451e+00  5.9011e-01  1:57:45  281
   220  1.0226e+04  4.6108e-02  7.1815e-02  2.7923e-02  2.9422e-02  9.8638e-01  5.0510e-01  1:58:05  280

  iter  continuity  x-velocity  y-velocity  z-velocity      energy           k       omega     time/iter
   221  1.2488e+04  5.4401e-02  8.1661e-02  3.2524e-02  4.1168e-02  1.0818e+00  5.5274e-01  1:58:24  279
   222  1.0541e+04  5.0930e-02  5.6973e-02  2.8675e-02  1.9735e-02  9.9258e-01  5.0902e-01  1:58:39  278
   223  1.2910e+04  4.2969e-02  6.0246e-02  2.8440e-02  2.7797e-02  1.0402e+00  5.3241e-01  1:58:32  277
   224  1.1957e+04  3.2277e-02  5.0783e-02  2.4470e-02  2.0711e-02  9.5345e-01  4.9192e-01  1:57:56  276
   225  1.3885e+04  3.0913e-02  4.9477e-02  2.3549e-02  3.1560e-02  1.0505e+00  5.4945e-01  1:57:03  275
   226  1.3516e+04  3.3379e-02  4.7222e-02  2.3499e-02  2.1289e-02  9.4237e-01  4.7962e-01  1:58:47  274
   227  1.6613e+04  3.4026e-02  4.9309e-02  2.6492e-02  3.1279e-02  9.8150e-01  5.2231e-01  1:57:55  273
   228  1.6810e+04  3.0815e-02  5.1947e-02  2.9761e-02  2.6919e-02  8.7732e-01  4.6673e-01  1:57:18  272
   229  2.1000e+04  3.0802e-02  5.1699e-02  3.6952e-02  2.4337e-02  8.7623e-01  4.9447e-01  1:56:24  271
   230  2.5063e+04  2.6437e-02  3.8745e-02  3.6276e-02  2.0156e-02  7.8711e-01  4.2509e-01  1:55:54  270
   231  3.1803e+04  2.0765e-02  2.9444e-02  3.1244e-02  1.8848e-02  7.2278e-01  4.1213e-01  1:55:35  269

  iter  continuity  x-velocity  y-velocity  z-velocity      energy           k       omega     time/iter
   232  4.0106e+04  1.5731e-02  2.2886e-02  2.6118e-02  1.5672e-02  6.6212e-01  3.7499e-01  1:56:39  268
   233  5.2320e+04  1.0581e-02  1.6370e-02  2.1230e-02  1.1656e-02  6.1354e-01  3.6325e-01  1:55:48  267
   234  6.8584e+04  9.5079e-03  1.5479e-02  2.0537e-02  1.0716e-02  5.9674e-01  3.1420e-01  1:55:08  266
   235  9.4598e+04  9.1017e-03  1.3578e-02  2.2167e-02  1.1123e-02  4.6748e-01  3.1078e-01  1:56:44  265
   236  1.3317e+05  9.0615e-03  1.2142e-02  2.4622e-02  1.1179e-02  4.5788e-01  3.2315e-01  1:56:05  264
   237  1.8487e+05  9.6841e-03  1.3215e-02  2.6987e-02  1.1292e-02  5.2873e-01  3.4395e-01  1:55:48  263
   238  2.5170e+05  1.0882e-02  1.4548e-02  3.0141e-02  1.1984e-02  5.5821e-01  3.4483e-01  1:55:48  262
   239  3.3855e+05  1.1868e-02  1.5586e-02  3.3941e-02  1.2226e-02  5.4705e-01  3.5302e-01  1:54:35  261

 turbulent viscosity limited to viscosity ratio of 1.000000e+05 in 52 cells 
   240  4.6218e+05  1.3173e-02  1.6122e-02  3.7155e-02  1.2241e-02  5.4503e-01  3.6107e-01  1:53:52  260

 turbulent viscosity limited to viscosity ratio of 1.000000e+05 in 225 cells 
   241  6.2881e+05  1.3657e-02  1.5159e-02  3.6974e-02  1.1400e-02  5.2499e-01  3.6528e-01  1:52:51  259

 turbulent viscosity limited to viscosity ratio of 1.000000e+05 in 314 cells 
   242  8.1377e+05  1.2852e-02  1.3607e-02  3.3440e-02  1.1741e-02  4.8427e-01  3.5796e-01  1:52:01  258

 turbulent viscosity limited to viscosity ratio of 1.000000e+05 in 467 cells 

  iter  continuity  x-velocity  y-velocity  z-velocity      energy           k       omega     time/iter
   243  1.0117e+06  1.1909e-02  1.2908e-02  2.8482e-02  1.2561e-02  5.0105e-01  3.5260e-01  1:51:43  257

 turbulent viscosity limited to viscosity ratio of 1.000000e+05 in 768 cells 
   244  1.2563e+06  1.1229e-02  1.1700e-02  2.4397e-02  1.3375e-02  5.7970e-01  3.5586e-01  1:53:34  256

 turbulent viscosity limited to viscosity ratio of 1.000000e+05 in 2217 cells 
   245  1.4915e+06  1.0791e-02  1.0938e-02  2.1626e-02  1.4307e-02  5.9729e-01  3.6558e-01  1:55:02  255

 turbulent viscosity limited to viscosity ratio of 1.000000e+05 in 6946 cells 
   246  1.7184e+06  1.0391e-02  1.1085e-02  2.0302e-02  1.5718e-02  6.6116e-01  4.0337e-01  1:54:41  254

 turbulent viscosity limited to viscosity ratio of 1.000000e+05 in 13363 cells 
   247  2.0775e+06  1.0948e-02  1.1462e-02  2.0979e-02  1.6890e-02  7.4601e-01  4.1788e-01  1:54:34  253

 turbulent viscosity limited to viscosity ratio of 1.000000e+05 in 23409 cells 
   248  2.5236e+06  1.1213e-02  1.2126e-02  2.1996e-02  1.8862e-02  7.9117e-01  4.3875e-01  1:54:23  252

 turbulent viscosity limited to viscosity ratio of 1.000000e+05 in 34230 cells 
   249  3.2087e+06  1.2749e-02  1.3530e-02  2.6640e-02  2.1900e-02  7.3256e-01  4.3523e-01  1:55:34  251

 turbulent viscosity limited to viscosity ratio of 1.000000e+05 in 44515 cells 
   250  4.1998e+06  1.4627e-02  1.5604e-02  3.3312e-02  2.3653e-02  7.0792e-01  4.1891e-01  1:54:42  250

 turbulent viscosity limited to viscosity ratio of 1.000000e+05 in 60025 cells 
   251  5.6888e+06  1.6075e-02  1.7121e-02  4.2723e-02  2.2146e-02  6.4062e-01  3.8845e-01  1:55:33  249

 turbulent viscosity limited to viscosity ratio of 1.000000e+05 in 79304 cells 
   252  7.8458e+06  1.5905e-02  1.7269e-02  4.3849e-02  2.0470e-02  6.5583e-01  4.1375e-01  1:54:32  248

 turbulent viscosity limited to viscosity ratio of 1.000000e+05 in 96563 cells 
   253  1.0175e+07  1.3712e-02  1.5477e-02  3.7278e-02  1.9576e-02  7.2965e-01  4.1874e-01  1:53:36  247

 turbulent viscosity limited to viscosity ratio of 1.000000e+05 in 120658 cells 

  iter  continuity  x-velocity  y-velocity  z-velocity      energy           k       omega     time/iter
   254  1.1542e+07  1.2151e-02  1.3898e-02  2.9988e-02  2.1636e-02  8.0498e-01  4.2421e-01  1:53:00  246

 turbulent viscosity limited to viscosity ratio of 1.000000e+05 in 132549 cells 
   255  1.4098e+07  1.1423e-02  1.3788e-02  2.6798e-02  2.2180e-02  8.3922e-01  4.1616e-01  1:55:05  245

 turbulent viscosity limited to viscosity ratio of 1.000000e+05 in 138417 cells 
   256  1.6453e+07  1.0694e-02  1.1613e-02  2.4992e-02  2.2301e-02  8.0090e-01  4.1294e-01  1:52:55  244

 turbulent viscosity limited to viscosity ratio of 1.000000e+05 in 145268 cells 
   257  1.8613e+07  1.0653e-02  1.1962e-02  2.2924e-02  2.4423e-02  8.6597e-01  4.3084e-01  1:51:04  243

 turbulent viscosity limited to viscosity ratio of 1.000000e+05 in 149754 cells 
   258  2.3280e+07  1.1033e-02  1.2107e-02  2.3230e-02  2.5498e-02  9.5684e-01  4.7900e-01  1:50:17  242

 turbulent viscosity limited to viscosity ratio of 1.000000e+05 in 159945 cells 
   259  2.8619e+07  1.1269e-02  1.3503e-02  2.5719e-02  2.6993e-02  9.4183e-01  4.7967e-01  1:49:41  241

 turbulent viscosity limited to viscosity ratio of 1.000000e+05 in 165410 cells 
   260  3.8006e+07  1.3480e-02  1.5086e-02  3.0478e-02  3.1315e-02  9.0736e-01  4.6470e-01  1:48:28  240

 turbulent viscosity limited to viscosity ratio of 1.000000e+05 in 170415 cells 
   261  5.2176e+07  1.5772e-02  1.8780e-02  3.7768e-02  3.6426e-02  8.0311e-01  4.5485e-01  1:48:05  239

 turbulent viscosity limited to viscosity ratio of 1.000000e+05 in 175943 cells 
   262  7.2306e+07  1.8168e-02  2.2536e-02  4.6436e-02  3.7732e-02  7.9029e-01  4.4294e-01  1:47:53  238

 turbulent viscosity limited to viscosity ratio of 1.000000e+05 in 191347 cells 
   263  9.0264e+07  1.8166e-02  2.4694e-02  4.7673e-02  3.7327e-02  8.2007e-01  4.2893e-01  1:49:31  237

 turbulent viscosity limited to viscosity ratio of 1.000000e+05 in 216015 cells 
   264  1.0546e+08  1.7417e-02  2.6219e-02  4.3749e-02  3.7726e-02  9.0234e-01  4.4007e-01  1:49:41  236

 turbulent viscosity limited to viscosity ratio of 1.000000e+05 in 218407 cells 

  iter  continuity  x-velocity  y-velocity  z-velocity      energy           k       omega     time/iter
   265  1.1400e+08  1.5763e-02  2.4370e-02  3.8914e-02  3.7818e-02  9.3481e-01  4.5904e-01  1:48:26  235

 turbulent viscosity limited to viscosity ratio of 1.000000e+05 in 214749 cells 
   266  1.2573e+08  1.4573e-02  2.1448e-02  3.4918e-02  3.7743e-02  9.6157e-01  4.7068e-01  1:46:44  234

 turbulent viscosity limited to viscosity ratio of 1.000000e+05 in 206174 cells 
   267  1.4090e+08  1.3180e-02  1.8929e-02  3.3313e-02  3.8993e-02  9.7213e-01  4.7846e-01  1:44:56  233

 turbulent viscosity limited to viscosity ratio of 1.000000e+05 in 200333 cells 
   268  1.5672e+08  1.3076e-02  1.8209e-02  3.1724e-02  3.7763e-02  9.6477e-01  4.7777e-01  1:43:07  232

 turbulent viscosity limited to viscosity ratio of 1.000000e+05 in 194675 cells 
   269  1.8659e+08  1.3550e-02  1.6731e-02  3.2014e-02  3.7806e-02  9.3682e-01  4.5618e-01  1:44:10  231

 turbulent viscosity limited to viscosity ratio of 1.000000e+05 in 191531 cells 
   270  2.3328e+08  1.3724e-02  1.6620e-02  3.3863e-02  3.4315e-02  9.2030e-01  4.5881e-01  1:43:21  230

 turbulent viscosity limited to viscosity ratio of 1.000000e+05 in 189532 cells 
   271  3.1063e+08  1.4642e-02  1.7428e-02  3.6065e-02  3.6736e-02  9.0814e-01  4.5924e-01  1:42:22  229

 turbulent viscosity limited to viscosity ratio of 1.000000e+05 in 191076 cells 
   272  4.3676e+08  1.5877e-02  2.0067e-02  4.1978e-02  4.2500e-02  8.3913e-01  4.4272e-01  1:41:41  228

 absolute pressure limited to 5.000000e+10 in 3 cells on zone 900 

 turbulent viscosity limited to viscosity ratio of 1.000000e+05 in 196604 cells 
   273  5.5549e+08  1.7519e-02  2.4024e-02  4.8669e-02  4.7206e-02  8.9720e-01  4.6155e-01  1:40:36  227

 absolute pressure limited to 5.000000e+10 in 26 cells on zone 900 

 turbulent viscosity limited to viscosity ratio of 1.000000e+05 in 208300 cells 
   274  6.4056e+08  1.7908e-02  2.6803e-02  5.0403e-02  4.6384e-02  9.3806e-01  4.8441e-01  1:39:44  226

 absolute pressure limited to 5.000000e+10 in 41 cells on zone 900 

 turbulent viscosity limited to viscosity ratio of 1.000000e+05 in 217853 cells 
   275  6.2315e+08  1.6062e-02  2.6191e-02  4.5709e-02  4.5672e-02  9.7045e-01  4.8579e-01  1:40:13  225

 absolute pressure limited to 5.000000e+10 in 54 cells on zone 900 

 turbulent viscosity limited to viscosity ratio of 1.000000e+05 in 224383 cells 

  iter  continuity  x-velocity  y-velocity  z-velocity      energy           k       omega     time/iter
   276  7.7196e+08  1.4934e-02  2.6569e-02  4.0783e-02  4.6495e-02  9.6326e-01  4.7120e-01  1:40:10  224

 absolute pressure limited to 5.000000e+10 in 55 cells on zone 900 

 turbulent viscosity limited to viscosity ratio of 1.000000e+05 in 226871 cells 
   277  8.3290e+08  1.3750e-02  2.1675e-02  3.7775e-02  3.9260e-02  9.6033e-01  4.7050e-01  1:40:10  223

 absolute pressure limited to 5.000000e+10 in 101 cells on zone 900 

 turbulent viscosity limited to viscosity ratio of 1.000000e+05 in 223897 cells 
   278  9.9775e+08  1.3896e-02  2.1175e-02  3.4198e-02  3.9922e-02  9.7647e-01  4.7761e-01  1:40:53  222

 absolute pressure limited to 5.000000e+10 in 122 cells on zone 900 

 turbulent viscosity limited to viscosity ratio of 1.000000e+05 in 219138 cells 
   279  1.2889e+09  1.3368e-02  2.2322e-02  3.4870e-02  4.0902e-02  9.8770e-01  4.8414e-01  1:39:17  221

 absolute pressure limited to 5.000000e+10 in 252 cells on zone 900 

 turbulent viscosity limited to viscosity ratio of 1.000000e+05 in 214131 cells 
   280  1.6908e+09  1.4379e-02  2.3078e-02  3.4753e-02  4.1867e-02  9.8471e-01  4.7713e-01  1:38:55  220

 absolute pressure limited to 5.000000e+10 in 366 cells on zone 900 

 turbulent viscosity limited to viscosity ratio of 1.000000e+05 in 209463 cells 
   281  2.1303e+09  1.4991e-02  2.4733e-02  3.5711e-02  3.7727e-02  9.7845e-01  4.7497e-01  1:37:27  219

 absolute pressure limited to 5.000000e+10 in 499 cells on zone 900 

 turbulent viscosity limited to viscosity ratio of 1.000000e+05 in 207000 cells 
   282  2.6114e+09  1.6300e-02  2.7674e-02  3.7318e-02  4.2017e-02  9.8020e-01  4.7848e-01  1:36:22  218

 absolute pressure limited to 5.000000e+10 in 1047 cells on zone 900 

 turbulent viscosity limited to viscosity ratio of 1.000000e+05 in 210603 cells 
   283  2.7571e+09  1.7874e-02  3.2873e-02  3.9460e-02  4.6104e-02  9.7988e-01  4.7533e-01  1:35:45  217

 absolute pressure limited to 5.000000e+10 in 12728 cells on zone 900 

 turbulent viscosity limited to viscosity ratio of 1.000000e+05 in 217277 cells 
   284  2.6449e+09  1.9700e-02  3.6448e-02  4.1797e-02  4.4166e-02  9.6713e-01  4.7104e-01  1:35:36  216

 absolute pressure limited to 5.000000e+10 in 41617 cells on zone 900 

 turbulent viscosity limited to viscosity ratio of 1.000000e+05 in 223274 cells 
   285  2.7061e+09  2.1375e-02  3.6574e-02  4.3089e-02  4.3603e-02  9.7751e-01  4.8015e-01  1:33:58  215

 absolute pressure limited to 5.000000e+10 in 63689 cells on zone 900 

 turbulent viscosity limited to viscosity ratio of 1.000000e+05 in 226721 cells 
   286  2.6345e+09  2.1366e-02  3.7228e-02  4.3482e-02  4.5292e-02  9.8825e-01  4.8929e-01  1:36:29  214

 absolute pressure limited to 5.000000e+10 in 85181 cells on zone 900 

 turbulent viscosity limited to viscosity ratio of 1.000000e+05 in 227400 cells 

  iter  continuity  x-velocity  y-velocity  z-velocity      energy           k       omega     time/iter
   287  2.6234e+09  2.1289e-02  3.6936e-02  4.3509e-02  4.3966e-02  9.9094e-01  4.9173e-01  1:36:27  213

 absolute pressure limited to 5.000000e+10 in 116371 cells on zone 900 

 turbulent viscosity limited to viscosity ratio of 1.000000e+05 in 227358 cells 
   288  2.8555e+09  2.0211e-02  3.6545e-02  4.3771e-02  4.2211e-02  9.9811e-01  4.9772e-01  1:35:03  212

 absolute pressure limited to 5.000000e+10 in 251436 cells on zone 900 

 turbulent viscosity limited to viscosity ratio of 1.000000e+05 in 222399 cells 
   289  3.6418e+09  1.9359e-02  4.0687e-02  4.5925e-02  5.3263e-02  9.9975e-01  4.9933e-01  1:34:44  211

 absolute pressure limited to 5.000000e+10 in 261012 cells on zone 900 

 turbulent viscosity limited to viscosity ratio of 1.000000e+05 in 220574 cells 
   290  4.6940e+09  1.8863e-02  4.4258e-02  4.2399e-02  5.3220e-02  9.9962e-01  4.9936e-01  1:33:32  210

 absolute pressure limited to 5.000000e+10 in 262182 cells on zone 900 

 turbulent viscosity limited to viscosity ratio of 1.000000e+05 in 220424 cells 
   291  5.5182e+09  1.5997e-02  4.4776e-02  3.8249e-02  4.9757e-02  9.9945e-01  4.9928e-01  1:32:27  209

 absolute pressure limited to 5.000000e+10 in 262768 cells on zone 900 

 turbulent viscosity limited to viscosity ratio of 1.000000e+05 in 225364 cells 
   292  5.6533e+09  1.4070e-02  4.3935e-02  3.5269e-02  5.1345e-02  9.9878e-01  4.9877e-01  1:32:28  208

 absolute pressure limited to 5.000000e+10 in 263060 cells on zone 900 

 turbulent viscosity limited to viscosity ratio of 1.000000e+05 in 227983 cells 
   293  6.4127e+09  1.6474e-02  4.2908e-02  3.5464e-02  4.2910e-02  9.9603e-01  4.9766e-01  1:31:39  207

 absolute pressure limited to 5.000000e+10 in 263129 cells on zone 900 

 turbulent viscosity limited to viscosity ratio of 1.000000e+05 in 226210 cells 
   294  7.7197e+09  1.3743e-02  4.7936e-02  3.6737e-02  3.9157e-02  9.9725e-01  4.9783e-01  1:31:00  206

 absolute pressure limited to 5.000000e+10 in 263080 cells on zone 900 

 turbulent viscosity limited to viscosity ratio of 1.000000e+05 in 226021 cells 
   295  8.1076e+09  1.2486e-02  5.2146e-02  3.7174e-02  3.9176e-02  9.9856e-01  4.9854e-01  1:33:19  205

 absolute pressure limited to 5.000000e+10 in 263145 cells on zone 900 

 turbulent viscosity limited to viscosity ratio of 1.000000e+05 in 227134 cells 
   296  8.2253e+09  1.3478e-02  5.2827e-02  3.6388e-02  3.8195e-02  9.9687e-01  4.9761e-01  1:33:45  204

 absolute pressure limited to 5.000000e+10 in 263137 cells on zone 900 

 turbulent viscosity limited to viscosity ratio of 1.000000e+05 in 228280 cells 
   297  8.8382e+09  1.4740e-02  5.4035e-02  3.8304e-02  3.2095e-02  9.9905e-01  4.9906e-01  1:34:58  203

 absolute pressure limited to 5.000000e+10 in 263114 cells on zone 900 

 turbulent viscosity limited to viscosity ratio of 1.000000e+05 in 230083 cells 

  iter  continuity  x-velocity  y-velocity  z-velocity      energy           k       omega     time/iter
   298  9.1574e+09  1.2859e-02  5.3218e-02  4.1197e-02  2.8079e-02  9.9566e-01  4.9772e-01  1:36:00  202

 absolute pressure limited to 5.000000e+10 in 263103 cells on zone 900 

 turbulent viscosity limited to viscosity ratio of 1.000000e+05 in 228860 cells 
   299  9.1087e+09  1.1711e-02  5.0622e-02  4.2699e-02  2.4599e-02  9.8453e-01  4.9440e-01  1:36:34  201

 absolute pressure limited to 5.000000e+10 in 263132 cells on zone 900 

 turbulent viscosity limited to viscosity ratio of 1.000000e+05 in 225974 cells 
   300  9.5198e+09  1.2198e-02  5.0270e-02  4.2716e-02  2.3871e-02  9.7684e-01  4.9087e-01  1:35:36  200

 absolute pressure limited to 5.000000e+10 in 263127 cells on zone 900 

 turbulent viscosity limited to viscosity ratio of 1.000000e+05 in 227759 cells 
   301  1.0019e+10  1.2072e-02  5.0434e-02  4.4179e-02  2.2309e-02  9.8669e-01  4.8975e-01  1:35:03  199

 absolute pressure limited to 5.000000e+10 in 263119 cells on zone 900 

 turbulent viscosity limited to viscosity ratio of 1.000000e+05 in 232963 cells 
   302  1.0061e+10  1.1122e-02  4.8796e-02  4.4540e-02  2.1327e-02  9.8342e-01  4.8718e-01  1:33:50  198

 absolute pressure limited to 5.000000e+10 in 263120 cells on zone 900 

 turbulent viscosity limited to viscosity ratio of 1.000000e+05 in 241294 cells 
   303  9.9792e+09  1.1701e-02  4.8790e-02  4.5908e-02  2.0500e-02  9.7672e-01  4.8423e-01  1:32:33  197

 absolute pressure limited to 5.000000e+10 in 263134 cells on zone 900 

 turbulent viscosity limited to viscosity ratio of 1.000000e+05 in 249471 cells 
   304  1.0365e+10  1.1683e-02  4.8914e-02  4.7956e-02  1.9956e-02  9.7029e-01  4.7855e-01  1:30:55  196

 absolute pressure limited to 5.000000e+10 in 263130 cells on zone 900 

 turbulent viscosity limited to viscosity ratio of 1.000000e+05 in 251280 cells 
   305  1.0541e+10  1.0803e-02  4.7495e-02  4.8320e-02  2.0249e-02  9.8394e-01  4.8616e-01  1:29:56  195

 absolute pressure limited to 5.000000e+10 in 263113 cells on zone 900 

 turbulent viscosity limited to viscosity ratio of 1.000000e+05 in 251957 cells 
   306  1.0407e+10  1.0875e-02  4.8219e-02  4.8914e-02  2.0206e-02  9.9371e-01  4.9416e-01  1:28:09  194

 absolute pressure limited to 5.000000e+10 in 263110 cells on zone 900 

 turbulent viscosity limited to viscosity ratio of 1.000000e+05 in 252229 cells 
   307  1.0560e+10  1.1111e-02  4.7535e-02  4.9280e-02  2.0090e-02  9.8160e-01  4.8916e-01  1:26:50  193

 absolute pressure limited to 5.000000e+10 in 263111 cells on zone 900 

 turbulent viscosity limited to viscosity ratio of 1.000000e+05 in 252851 cells 
   308  1.0365e+10  1.1323e-02  4.7997e-02  4.9422e-02  1.9977e-02  9.7891e-01  4.8765e-01  1:25:37  192

 absolute pressure limited to 5.000000e+10 in 263136 cells on zone 900 

 turbulent viscosity limited to viscosity ratio of 1.000000e+05 in 253408 cells 

  iter  continuity  x-velocity  y-velocity  z-velocity      energy           k       omega     time/iter
   309  1.0649e+10  1.1572e-02  4.8617e-02  5.0284e-02  2.0500e-02  9.9945e-01  4.9951e-01  1:24:35  191

 absolute pressure limited to 5.000000e+10 in 263112 cells on zone 900 

 turbulent viscosity limited to viscosity ratio of 1.000000e+05 in 254072 cells 
   310  1.0947e+10  1.0982e-02  4.8717e-02  4.9523e-02  1.9220e-02  9.9765e-01  4.9880e-01  1:24:27  190

 absolute pressure limited to 5.000000e+10 in 263136 cells on zone 900 

 turbulent viscosity limited to viscosity ratio of 1.000000e+05 in 254371 cells 
   311  1.0542e+10  1.0439e-02  4.7911e-02  4.8457e-02  1.9356e-02  9.9178e-01  4.9730e-01  1:23:27  189

 absolute pressure limited to 5.000000e+10 in 263131 cells on zone 900 

 turbulent viscosity limited to viscosity ratio of 1.000000e+05 in 254639 cells 
   312  1.0765e+10  1.0827e-02  4.6561e-02  4.7197e-02  2.0725e-02  9.9416e-01  4.9657e-01  1:22:20  188

 absolute pressure limited to 5.000000e+10 in 263089 cells on zone 900 

 turbulent viscosity limited to viscosity ratio of 1.000000e+05 in 254691 cells 
   313  1.0638e+10  1.0445e-02  4.6732e-02  4.8664e-02  2.0926e-02  9.9803e-01  4.9834e-01  1:21:09  187

 absolute pressure limited to 5.000000e+10 in 263108 cells on zone 900 

 turbulent viscosity limited to viscosity ratio of 1.000000e+05 in 254960 cells 
   314  1.0514e+10  1.0579e-02  4.7949e-02  4.8037e-02  2.0777e-02  9.9201e-01  4.9621e-01  1:20:40  186

 absolute pressure limited to 5.000000e+10 in 263114 cells on zone 900 

 turbulent viscosity limited to viscosity ratio of 1.000000e+05 in 254926 cells 
   315  1.0559e+10  1.1505e-02  4.7011e-02  4.7313e-02  1.9880e-02  9.8676e-01  4.9476e-01  1:20:06  185

 absolute pressure limited to 5.000000e+10 in 263132 cells on zone 900 

 turbulent viscosity limited to viscosity ratio of 1.000000e+05 in 255141 cells 
   316  1.0650e+10  1.0674e-02  4.7247e-02  4.7998e-02  2.0579e-02  9.9877e-01  4.9881e-01  1:19:34  184

 absolute pressure limited to 5.000000e+10 in 263125 cells on zone 900 

 turbulent viscosity limited to viscosity ratio of 1.000000e+05 in 255135 cells 
   317  1.0853e+10  1.0505e-02  4.6548e-02  4.7285e-02  2.0992e-02  9.9718e-01  4.9814e-01  1:18:13  183

 absolute pressure limited to 5.000000e+10 in 263125 cells on zone 900 

 turbulent viscosity limited to viscosity ratio of 1.000000e+05 in 255181 cells 
   318  1.0949e+10  1.0687e-02  4.7188e-02  4.6877e-02  1.9073e-02  9.9562e-01  4.9717e-01  1:18:34  182

 absolute pressure limited to 5.000000e+10 in 263139 cells on zone 900 

 turbulent viscosity limited to viscosity ratio of 1.000000e+05 in 254968 cells 
   319  1.1246e+10  9.9304e-03  4.4715e-02  4.8653e-02  1.9569e-02  9.9274e-01  4.9525e-01  1:18:54  181

 absolute pressure limited to 5.000000e+10 in 263115 cells on zone 900 

 turbulent viscosity limited to viscosity ratio of 1.000000e+05 in 255012 cells 

  iter  continuity  x-velocity  y-velocity  z-velocity      energy           k       omega     time/iter
   320  1.0799e+10  1.0164e-02  4.4941e-02  4.7491e-02  1.9583e-02  9.7972e-01  4.9182e-01  1:20:02  180

 absolute pressure limited to 5.000000e+10 in 263131 cells on zone 900 

 turbulent viscosity limited to viscosity ratio of 1.000000e+05 in 255041 cells 
   321  1.0834e+10  1.0116e-02  4.5568e-02  4.7758e-02  1.9227e-02  9.9723e-01  4.9700e-01  1:18:56  179

 absolute pressure limited to 5.000000e+10 in 263133 cells on zone 900 

 turbulent viscosity limited to viscosity ratio of 1.000000e+05 in 254879 cells 
   322  1.1133e+10  1.0352e-02  4.6243e-02  4.7556e-02  1.9372e-02  9.9536e-01  4.9601e-01  1:18:48  178

 absolute pressure limited to 5.000000e+10 in 263106 cells on zone 900 

 turbulent viscosity limited to viscosity ratio of 1.000000e+05 in 254975 cells 
   323  1.0817e+10  1.0088e-02  4.6137e-02  4.6509e-02  2.0260e-02  9.9245e-01  4.9424e-01  1:19:23  177

 absolute pressure limited to 5.000000e+10 in 263121 cells on zone 900 

 turbulent viscosity limited to viscosity ratio of 1.000000e+05 in 254748 cells 
   324  1.0654e+10  1.0276e-02  4.6184e-02  4.6672e-02  2.1824e-02  9.8701e-01  4.9122e-01  1:18:41  176

 absolute pressure limited to 5.000000e+10 in 263129 cells on zone 900 

 turbulent viscosity limited to viscosity ratio of 1.000000e+05 in 255000 cells 
   325  1.0902e+10  1.0928e-02  4.8046e-02  4.6772e-02  2.1633e-02  9.8577e-01  4.8970e-01  1:18:16  175

 absolute pressure limited to 5.000000e+10 in 263099 cells on zone 900 

 turbulent viscosity limited to viscosity ratio of 1.000000e+05 in 254632 cells 
   326  1.0409e+10  1.0329e-02  4.6557e-02  4.7927e-02  2.1040e-02  9.9737e-01  4.9730e-01  1:18:14  174

 absolute pressure limited to 5.000000e+10 in 263120 cells on zone 900 

 turbulent viscosity limited to viscosity ratio of 1.000000e+05 in 254995 cells 
   327  1.0525e+10  1.0423e-02  4.7440e-02  4.9982e-02  2.1015e-02  9.9172e-01  4.9495e-01  1:17:38  173

 absolute pressure limited to 5.000000e+10 in 263107 cells on zone 900 

 turbulent viscosity limited to viscosity ratio of 1.000000e+05 in 254547 cells 
   328  1.0919e+10  1.0304e-02  4.8839e-02  5.0346e-02  2.0584e-02  9.9433e-01  4.9611e-01  1:16:40  172

 absolute pressure limited to 5.000000e+10 in 263116 cells on zone 900 

 turbulent viscosity limited to viscosity ratio of 1.000000e+05 in 254968 cells 
   329  1.0689e+10  1.0316e-02  5.0079e-02  4.7873e-02  2.0479e-02  9.9210e-01  4.9442e-01  1:17:00  171

 absolute pressure limited to 5.000000e+10 in 263142 cells on zone 900 

 turbulent viscosity limited to viscosity ratio of 1.000000e+05 in 254256 cells 
   330  1.0592e+10  1.0271e-02  4.7326e-02  4.5866e-02  2.0921e-02  9.9701e-01  4.9729e-01  1:16:09  170

 absolute pressure limited to 5.000000e+10 in 263112 cells on zone 900 

 turbulent viscosity limited to viscosity ratio of 1.000000e+05 in 254702 cells 

  iter  continuity  x-velocity  y-velocity  z-velocity      energy           k       omega     time/iter
   331  1.0288e+10  1.0782e-02  4.7661e-02  4.5504e-02  2.0896e-02  9.9813e-01  4.9843e-01  1:15:16  169

 absolute pressure limited to 5.000000e+10 in 263125 cells on zone 900 

 turbulent viscosity limited to viscosity ratio of 1.000000e+05 in 254192 cells 
   332  1.0159e+10  1.0325e-02  4.6900e-02  4.5745e-02  2.1501e-02  9.9745e-01  4.9805e-01  1:15:24  168

 absolute pressure limited to 5.000000e+10 in 263118 cells on zone 900 

 turbulent viscosity limited to viscosity ratio of 1.000000e+05 in 254735 cells 
   333  9.9644e+09  1.0989e-02  4.9099e-02  4.5649e-02  2.1648e-02  9.9481e-01  4.9678e-01  1:14:14  167

 absolute pressure limited to 5.000000e+10 in 263117 cells on zone 900 

 turbulent viscosity limited to viscosity ratio of 1.000000e+05 in 254114 cells 
   334  9.7141e+09  1.0126e-02  4.7954e-02  4.5590e-02  2.1296e-02  9.9433e-01  4.9595e-01  1:15:30  166

 absolute pressure limited to 5.000000e+10 in 263087 cells on zone 900 

 turbulent viscosity limited to viscosity ratio of 1.000000e+05 in 254895 cells 
   335  9.3984e+09  1.0505e-02  4.7418e-02  4.6386e-02  2.1564e-02  9.9134e-01  4.9372e-01  1:15:21  165

 absolute pressure limited to 5.000000e+10 in 263120 cells on zone 900 

 turbulent viscosity limited to viscosity ratio of 1.000000e+05 in 254533 cells 
   336  9.3361e+09  1.1367e-02  4.7811e-02  4.4137e-02  2.3307e-02  9.8699e-01  4.9109e-01  1:14:05  164

 absolute pressure limited to 5.000000e+10 in 263108 cells on zone 900 

 turbulent viscosity limited to viscosity ratio of 1.000000e+05 in 254977 cells 
   337  9.1097e+09  1.0602e-02  4.6592e-02  4.3845e-02  2.3834e-02  9.8394e-01  4.8959e-01  1:13:41  163

 absolute pressure limited to 5.000000e+10 in 263096 cells on zone 900 

 turbulent viscosity limited to viscosity ratio of 1.000000e+05 in 254374 cells 
   338  8.5530e+09  1.1061e-02  4.9421e-02  4.4511e-02  2.2680e-02  9.9567e-01  4.9584e-01  1:12:48  162

 absolute pressure limited to 5.000000e+10 in 263112 cells on zone 900 

 turbulent viscosity limited to viscosity ratio of 1.000000e+05 in 254876 cells 
   339  8.3979e+09  1.1543e-02  4.9057e-02  4.3692e-02  2.3483e-02  9.9620e-01  4.9591e-01  1:12:17  161

 absolute pressure limited to 5.000000e+10 in 263104 cells on zone 900 

 turbulent viscosity limited to viscosity ratio of 1.000000e+05 in 254087 cells 
   340  8.2269e+09  1.1122e-02  4.6947e-02  4.3478e-02  2.3351e-02  9.9007e-01  4.9348e-01  1:12:21  160

 absolute pressure limited to 5.000000e+10 in 263104 cells on zone 900 

 turbulent viscosity limited to viscosity ratio of 1.000000e+05 in 254810 cells 
   341  8.0876e+09  1.1415e-02  4.8937e-02  4.3906e-02  2.4466e-02  9.7780e-01  4.8879e-01  1:13:01  159

 absolute pressure limited to 5.000000e+10 in 263112 cells on zone 900 

 turbulent viscosity limited to viscosity ratio of 1.000000e+05 in 254095 cells 

  iter  continuity  x-velocity  y-velocity  z-velocity      energy           k       omega     time/iter
   342  7.8795e+09  1.1867e-02  4.9266e-02  4.3955e-02  2.5125e-02  9.8714e-01  4.8953e-01  1:12:15  158

 absolute pressure limited to 5.000000e+10 in 263081 cells on zone 900 

 turbulent viscosity limited to viscosity ratio of 1.000000e+05 in 254618 cells 
   343  7.3867e+09  1.1520e-02  4.9554e-02  4.2580e-02  2.6628e-02  9.9269e-01  4.9319e-01  1:11:00  157

 absolute pressure limited to 5.000000e+10 in 263094 cells on zone 900 

 turbulent viscosity limited to viscosity ratio of 1.000000e+05 in 253851 cells 
   344  7.2193e+09  1.2562e-02  5.0254e-02  4.3502e-02  2.6671e-02  9.9644e-01  4.9665e-01  1:10:58  156

 absolute pressure limited to 5.000000e+10 in 263064 cells on zone 900 

 turbulent viscosity limited to viscosity ratio of 1.000000e+05 in 254077 cells 
   345  7.1269e+09  1.3587e-02  5.0594e-02  4.4109e-02  2.6713e-02  9.9508e-01  4.9560e-01  1:10:56  155

 absolute pressure limited to 5.000000e+10 in 263087 cells on zone 900 

 turbulent viscosity limited to viscosity ratio of 1.000000e+05 in 253798 cells 
   346  7.0498e+09  1.2703e-02  5.0116e-02  4.3549e-02  2.7654e-02  9.9609e-01  4.9566e-01  1:11:33  154

 absolute pressure limited to 5.000000e+10 in 263088 cells on zone 900 

 turbulent viscosity limited to viscosity ratio of 1.000000e+05 in 254063 cells 
   347  7.0989e+09  1.1774e-02  5.0792e-02  4.2016e-02  2.8606e-02  9.9393e-01  4.9487e-01  1:12:21  153

 absolute pressure limited to 5.000000e+10 in 263086 cells on zone 900 

 turbulent viscosity limited to viscosity ratio of 1.000000e+05 in 253409 cells 
   348  6.9569e+09  1.2658e-02  4.9951e-02  4.2215e-02  2.7472e-02  9.9099e-01  4.9252e-01  1:11:46  152

 absolute pressure limited to 5.000000e+10 in 263097 cells on zone 900 

 turbulent viscosity limited to viscosity ratio of 1.000000e+05 in 253670 cells 
   349  6.8861e+09  1.3347e-02  4.9615e-02  4.0049e-02  2.7046e-02  9.9912e-01  4.9858e-01  1:10:18  151

 absolute pressure limited to 5.000000e+10 in 263092 cells on zone 900 

 turbulent viscosity limited to viscosity ratio of 1.000000e+05 in 253384 cells 
   350  6.7952e+09  1.2729e-02  4.8598e-02  4.0687e-02  2.9088e-02  9.9693e-01  4.9794e-01  1:09:36  150

 absolute pressure limited to 5.000000e+10 in 263101 cells on zone 900 

 turbulent viscosity limited to viscosity ratio of 1.000000e+05 in 253586 cells 
   351  6.4318e+09  1.3800e-02  4.9757e-02  4.2872e-02  2.7608e-02  9.9921e-01  4.9938e-01  1:09:40  149

 absolute pressure limited to 5.000000e+10 in 263107 cells on zone 900 

 turbulent viscosity limited to viscosity ratio of 1.000000e+05 in 253619 cells 
   352  6.4729e+09  1.4431e-02  4.8680e-02  4.4914e-02  2.5780e-02  9.9671e-01  4.9872e-01  1:08:16  148

 absolute pressure limited to 5.000000e+10 in 263108 cells on zone 900 

 turbulent viscosity limited to viscosity ratio of 1.000000e+05 in 253516 cells 

  iter  continuity  x-velocity  y-velocity  z-velocity      energy           k       omega     time/iter
   353  6.7062e+09  1.2996e-02  4.6912e-02  4.4366e-02  2.4581e-02  9.9812e-01  4.9853e-01  1:08:25  147

 absolute pressure limited to 5.000000e+10 in 263116 cells on zone 900 

 turbulent viscosity limited to viscosity ratio of 1.000000e+05 in 253615 cells 
   354  6.7197e+09  1.3050e-02  4.7211e-02  4.3329e-02  2.6482e-02  9.9765e-01  4.9818e-01  1:08:21  146

 absolute pressure limited to 5.000000e+10 in 263128 cells on zone 900 

 turbulent viscosity limited to viscosity ratio of 1.000000e+05 in 253585 cells 
   355  6.7774e+09  1.4453e-02  4.8837e-02  4.2939e-02  2.5330e-02  9.9379e-01  4.9673e-01  1:08:23  145

 absolute pressure limited to 5.000000e+10 in 263113 cells on zone 900 

 turbulent viscosity limited to viscosity ratio of 1.000000e+05 in 253752 cells 
   356  6.6180e+09  1.3337e-02  4.6344e-02  4.4451e-02  2.4806e-02  9.9537e-01  4.9673e-01  1:08:17  144

 absolute pressure limited to 5.000000e+10 in 263131 cells on zone 900 

 turbulent viscosity limited to viscosity ratio of 1.000000e+05 in 253864 cells 
   357  6.5534e+09  1.3331e-02  4.7794e-02  4.5682e-02  2.4677e-02  9.9933e-01  4.9925e-01  1:07:17  143

 absolute pressure limited to 5.000000e+10 in 263136 cells on zone 900 

 turbulent viscosity limited to viscosity ratio of 1.000000e+05 in 253903 cells 
   358  6.7235e+09  1.2830e-02  4.5976e-02  4.6216e-02  2.4489e-02  9.9737e-01  4.9861e-01  1:06:18  142

 absolute pressure limited to 5.000000e+10 in 263112 cells on zone 900 

 turbulent viscosity limited to viscosity ratio of 1.000000e+05 in 253927 cells 
   359  6.5501e+09  1.3279e-02  4.6712e-02  4.5363e-02  2.6474e-02  9.9683e-01  4.9801e-01  1:05:57  141

 absolute pressure limited to 5.000000e+10 in 263145 cells on zone 900 

 turbulent viscosity limited to viscosity ratio of 1.000000e+05 in 254157 cells 
   360  6.5633e+09  1.3713e-02  4.8554e-02  4.6389e-02  2.5842e-02  9.9267e-01  4.9614e-01  1:05:03  140

 absolute pressure limited to 5.000000e+10 in 263138 cells on zone 900 

 turbulent viscosity limited to viscosity ratio of 1.000000e+05 in 254271 cells 
   361  6.7344e+09  1.3971e-02  4.8445e-02  4.7850e-02  2.4998e-02  9.8606e-01  4.9285e-01  2:28:59  139

 absolute pressure limited to 5.000000e+10 in 263119 cells on zone 900 

 turbulent viscosity limited to viscosity ratio of 1.000000e+05 in 254230 cells 
   362  6.5187e+09  1.2494e-02  4.5651e-02  4.8145e-02  2.6109e-02  9.9319e-01  4.9435e-01  2:11:13  138

 absolute pressure limited to 5.000000e+10 in 263128 cells on zone 900 

 turbulent viscosity limited to viscosity ratio of 1.000000e+05 in 253800 cells 
   363  6.4714e+09  1.2308e-02  4.4529e-02  4.5518e-02  2.5190e-02  9.8112e-01  4.9032e-01  1:57:02  137

 absolute pressure limited to 5.000000e+10 in 263127 cells on zone 900 

 turbulent viscosity limited to viscosity ratio of 1.000000e+05 in 253937 cells 

  iter  continuity  x-velocity  y-velocity  z-velocity      energy           k       omega     time/iter
   364  6.4449e+09  1.2685e-02  4.5516e-02  4.4326e-02  2.4811e-02  9.8647e-01  4.8805e-01  1:45:01  136

 absolute pressure limited to 5.000000e+10 in 263129 cells on zone 900 

 turbulent viscosity limited to viscosity ratio of 1.000000e+05 in 253637 cells 
   365  6.3170e+09  1.4825e-02  4.9472e-02  4.5297e-02  2.5860e-02  9.8109e-01  4.8829e-01  1:35:38  135

 absolute pressure limited to 5.000000e+10 in 263097 cells on zone 900 

 turbulent viscosity limited to viscosity ratio of 1.000000e+05 in 253811 cells 
   366  6.2500e+09  1.4873e-02  4.8908e-02  4.8418e-02  2.5441e-02  9.9970e-01  4.9962e-01  1:28:56  134

 absolute pressure limited to 5.000000e+10 in 263116 cells on zone 900 

 turbulent viscosity limited to viscosity ratio of 1.000000e+05 in 253555 cells 
   367  6.3044e+09  1.4650e-02  5.1021e-02  4.9105e-02  2.5843e-02  9.9826e-01  4.9902e-01  1:22:35  133

 absolute pressure limited to 5.000000e+10 in 263134 cells on zone 900 

 turbulent viscosity limited to viscosity ratio of 1.000000e+05 in 253834 cells 
   368  6.2049e+09  1.3647e-02  5.1420e-02  5.0037e-02  2.6102e-02  9.9625e-01  4.9832e-01  1:18:36  132

 absolute pressure limited to 5.000000e+10 in 263143 cells on zone 900 

 turbulent viscosity limited to viscosity ratio of 1.000000e+05 in 253567 cells 
   369  6.3160e+09  1.4506e-02  5.3018e-02  4.9895e-02  2.7763e-02  9.8469e-01  4.9626e-01  1:14:35  131

 absolute pressure limited to 5.000000e+10 in 263111 cells on zone 900 

 turbulent viscosity limited to viscosity ratio of 1.000000e+05 in 254002 cells 
   370  6.4459e+09  1.3593e-02  5.1360e-02  4.9903e-02  2.8791e-02  9.9094e-01  4.9454e-01  1:11:29  130

 absolute pressure limited to 5.000000e+10 in 263123 cells on zone 900 

 turbulent viscosity limited to viscosity ratio of 1.000000e+05 in 253690 cells 
   371  6.3206e+09  1.2789e-02  4.9717e-02  5.0288e-02  2.8660e-02  9.8898e-01  4.9199e-01  1:09:00  129

 absolute pressure limited to 5.000000e+10 in 263129 cells on zone 900 

 turbulent viscosity limited to viscosity ratio of 1.000000e+05 in 253975 cells 
   372  6.2027e+09  1.3533e-02  5.0618e-02  4.7541e-02  2.8404e-02  9.8361e-01  4.8846e-01  1:07:15  128

 absolute pressure limited to 5.000000e+10 in 263128 cells on zone 900 

 turbulent viscosity limited to viscosity ratio of 1.000000e+05 in 253413 cells 
   373  6.2706e+09  1.4001e-02  4.9264e-02  4.7290e-02  2.8389e-02  9.8574e-01  4.8824e-01  1:05:00  127

 absolute pressure limited to 5.000000e+10 in 263103 cells on zone 900 

 turbulent viscosity limited to viscosity ratio of 1.000000e+05 in 253467 cells 
   374  6.0658e+09  1.4300e-02  5.0277e-02  4.7010e-02  2.7969e-02  9.9559e-01  4.9518e-01  1:03:44  126

 absolute pressure limited to 5.000000e+10 in 263132 cells on zone 900 

 turbulent viscosity limited to viscosity ratio of 1.000000e+05 in 253212 cells 

  iter  continuity  x-velocity  y-velocity  z-velocity      energy           k       omega     time/iter
   375  6.1212e+09  1.4467e-02  4.9095e-02  4.7488e-02  2.7602e-02  9.9434e-01  4.9446e-01  1:02:28  125

 absolute pressure limited to 5.000000e+10 in 263110 cells on zone 900 

 turbulent viscosity limited to viscosity ratio of 1.000000e+05 in 253416 cells 
   376  6.2032e+09  1.3706e-02  4.7823e-02  4.7436e-02  2.7684e-02  9.9675e-01  4.9682e-01  1:01:00  124

 absolute pressure limited to 5.000000e+10 in 263126 cells on zone 900 

 turbulent viscosity limited to viscosity ratio of 1.000000e+05 in 253181 cells 
   377  6.2886e+09  1.4042e-02  4.9328e-02  4.8025e-02  2.7293e-02  9.9490e-01  4.9603e-01  1:00:39  123

 absolute pressure limited to 5.000000e+10 in 263141 cells on zone 900 

 turbulent viscosity limited to viscosity ratio of 1.000000e+05 in 253258 cells 
   378  6.4493e+09  1.3650e-02  4.8524e-02  4.6791e-02  2.5976e-02  9.9564e-01  4.9639e-01  0:59:35  122

 absolute pressure limited to 5.000000e+10 in 263127 cells on zone 900 

 turbulent viscosity limited to viscosity ratio of 1.000000e+05 in 253193 cells 
   379  6.4829e+09  1.3580e-02  4.8011e-02  4.6236e-02  2.4779e-02  9.9445e-01  4.9592e-01  0:58:16  121

 absolute pressure limited to 5.000000e+10 in 263143 cells on zone 900 

 turbulent viscosity limited to viscosity ratio of 1.000000e+05 in 253165 cells 
   380  6.2931e+09  1.3661e-02  4.6648e-02  4.5072e-02  2.5086e-02  9.8395e-01  4.9264e-01  0:57:52  120

 absolute pressure limited to 5.000000e+10 in 263146 cells on zone 900 

 turbulent viscosity limited to viscosity ratio of 1.000000e+05 in 253018 cells 
   381  6.3257e+09  1.3469e-02  4.9049e-02  4.5353e-02  2.3897e-02  9.9768e-01  4.9756e-01  0:56:09  119

 absolute pressure limited to 5.000000e+10 in 263098 cells on zone 900 

 turbulent viscosity limited to viscosity ratio of 1.000000e+05 in 253183 cells 
   382  6.2245e+09  1.3218e-02  4.7527e-02  4.5800e-02  2.4429e-02  9.9167e-01  4.9625e-01  0:56:01  118
 temperature limited to 5.000000e+03 in 1 cells on zone 900 in domain 1
 
 absolute pressure limited to 5.000000e+10 in 263116 cells on zone 900 

 turbulent viscosity limited to viscosity ratio of 1.000000e+05 in 253399 cells 
   383  6.2131e+09  1.4082e-02  4.8548e-02  4.7400e-02  2.6138e-02  9.9342e-01  4.9512e-01  0:55:35  117
 temperature limited to 5.000000e+03 in 17 cells on zone 900 in domain 1
 
 absolute pressure limited to 5.000000e+10 in 263135 cells on zone 900 

 turbulent viscosity limited to viscosity ratio of 1.000000e+05 in 253441 cells 
   384  6.4018e+09  1.4966e-02  4.9418e-02  4.7915e-02  2.7115e-02  9.9901e-01  4.9889e-01  0:54:45  116

 absolute pressure limited to 5.000000e+10 in 263119 cells on zone 900 

 turbulent viscosity limited to viscosity ratio of 1.000000e+05 in 253294 cells 
   385  6.5689e+09  1.3709e-02  5.0101e-02  4.8045e-02  2.7285e-02  9.9691e-01  4.9778e-01  0:53:43  115

 absolute pressure limited to 5.000000e+10 in 263121 cells on zone 900 

 turbulent viscosity limited to viscosity ratio of 1.000000e+05 in 253437 cells 

  iter  continuity  x-velocity  y-velocity  z-velocity      energy           k       omega     time/iter
   386  6.5988e+09  1.3383e-02  5.0389e-02  4.8142e-02  2.5832e-02  9.9093e-01  4.9565e-01  0:53:38  114

 absolute pressure limited to 5.000000e+10 in 263125 cells on zone 900 

 turbulent viscosity limited to viscosity ratio of 1.000000e+05 in 253127 cells 
   387  6.7004e+09  1.2762e-02  4.7606e-02  4.9487e-02  2.4185e-02  9.7836e-01  4.9016e-01  0:52:16  113

 absolute pressure limited to 5.000000e+10 in 263131 cells on zone 900 

 turbulent viscosity limited to viscosity ratio of 1.000000e+05 in 253100 cells 
   388  6.8983e+09  1.2718e-02  4.6589e-02  4.8832e-02  2.3259e-02  9.7389e-01  4.8447e-01  0:52:12  112

 absolute pressure limited to 5.000000e+10 in 263111 cells on zone 900 

 turbulent viscosity limited to viscosity ratio of 1.000000e+05 in 252836 cells 
   389  6.9129e+09  1.1791e-02  4.7020e-02  4.7476e-02  2.3134e-02  9.7274e-01  4.8106e-01  0:51:04  111

 absolute pressure limited to 5.000000e+10 in 263138 cells on zone 900 

 turbulent viscosity limited to viscosity ratio of 1.000000e+05 in 252371 cells 
   390  6.8726e+09  1.2303e-02  4.7545e-02  4.4341e-02  2.3156e-02  9.7874e-01  4.8269e-01  0:50:27  110

 absolute pressure limited to 5.000000e+10 in 263130 cells on zone 900 

 turbulent viscosity limited to viscosity ratio of 1.000000e+05 in 251639 cells 
   391  6.7820e+09  1.2756e-02  4.7300e-02  4.4873e-02  2.4138e-02  9.8819e-01  4.8895e-01  0:49:50  109

 absolute pressure limited to 5.000000e+10 in 263134 cells on zone 900 

 turbulent viscosity limited to viscosity ratio of 1.000000e+05 in 251442 cells 
   392  6.7190e+09  1.2690e-02  4.5448e-02  4.5223e-02  2.5049e-02  9.8297e-01  4.8637e-01  0:49:23  108

 absolute pressure limited to 5.000000e+10 in 263101 cells on zone 900 

 turbulent viscosity limited to viscosity ratio of 1.000000e+05 in 250701 cells 
   393  6.5371e+09  1.3352e-02  4.7154e-02  4.4658e-02  2.5570e-02  9.9908e-01  4.9884e-01  0:48:53  107

 absolute pressure limited to 5.000000e+10 in 263124 cells on zone 900 

 turbulent viscosity limited to viscosity ratio of 1.000000e+05 in 252008 cells 
   394  6.6743e+09  1.3625e-02  4.8562e-02  4.6514e-02  2.5630e-02  9.9615e-01  4.9762e-01  0:48:25  106

 absolute pressure limited to 5.000000e+10 in 263132 cells on zone 900 

 turbulent viscosity limited to viscosity ratio of 1.000000e+05 in 252139 cells 
   395  6.8200e+09  1.2851e-02  4.8123e-02  4.7378e-02  2.5517e-02  9.9524e-01  4.9666e-01  0:47:56  105

 absolute pressure limited to 5.000000e+10 in 263134 cells on zone 900 

 turbulent viscosity limited to viscosity ratio of 1.000000e+05 in 252494 cells 
   396  6.9076e+09  1.2943e-02  4.8867e-02  4.6733e-02  2.4453e-02  9.9151e-01  4.9430e-01  0:47:34  104

 absolute pressure limited to 5.000000e+10 in 263125 cells on zone 900 

 turbulent viscosity limited to viscosity ratio of 1.000000e+05 in 252526 cells 

  iter  continuity  x-velocity  y-velocity  z-velocity      energy           k       omega     time/iter
   397  7.0711e+09  1.2189e-02  4.8478e-02  4.6405e-02  2.4281e-02  9.9669e-01  4.9680e-01  0:47:49  103

 absolute pressure limited to 5.000000e+10 in 263122 cells on zone 900 

 turbulent viscosity limited to viscosity ratio of 1.000000e+05 in 252850 cells 
   398  6.9166e+09  1.1911e-02  4.7163e-02  4.5166e-02  2.4640e-02  9.9010e-01  4.9414e-01  0:47:24  102

 absolute pressure limited to 5.000000e+10 in 263126 cells on zone 900 

 turbulent viscosity limited to viscosity ratio of 1.000000e+05 in 252038 cells 
   399  6.7744e+09  1.2528e-02  4.5899e-02  4.4105e-02  2.5384e-02  9.8036e-01  4.9064e-01  0:46:42  101

 absolute pressure limited to 5.000000e+10 in 263120 cells on zone 900 

 turbulent viscosity limited to viscosity ratio of 1.000000e+05 in 251283 cells 
[...]

 turbulent viscosity limited to viscosity ratio of 1.000000e+05 in 252941 cells 
   425  6.6368e+09  1.2544e-02  4.7545e-02  4.7285e-02  2.4446e-02  9.9041e-01  4.9193e-01  0:34:01   75
 temperature limited to 5.000000e+03 in 723 cells on zone 900 in domain 1
  temperature limited to 5.000000e+03 on 2 faces

 absolute pressure limited to 5.000000e+10 in 263118 cells on zone 900 

 turbulent viscosity limited to viscosity ratio of 1.000000e+05 in 252600 cells 
   426  6.5735e+09  1.3339e-02  4.9503e-02  4.7084e-02  2.4504e-02  9.9665e-01  4.9642e-01  0:33:22   74
 temperature limited to 5.000000e+03 in 3375 cells on zone 900 in domain 1
  temperature limited to 5.000000e+03 on 46 faces

 absolute pressure limited to 5.000000e+10 in 263135 cells on zone 900 

 turbulent viscosity limited to viscosity ratio of 1.000000e+05 in 252833 cells 
   427  6.6128e+09  1.3645e-02  4.9198e-02  4.6691e-02  2.3606e-02  9.9002e-01  4.9405e-01  0:32:56   73
 temperature limited to 5.000000e+03 in 3622 cells on zone 900 in domain 1
  temperature limited to 5.000000e+03 on 111 faces

 absolute pressure limited to 5.000000e+10 in 263141 cells on zone 900 

 turbulent viscosity limited to viscosity ratio of 1.000000e+05 in 253024 cells 
   428  6.5928e+09  1.2993e-02  4.9944e-02  4.7561e-02  2.3183e-02  9.8829e-01  4.9179e-01  0:32:59   72
 temperature limited to 5.000000e+03 in 3490 cells on zone 900 in domain 1
  temperature limited to 5.000000e+03 on 197 faces

 absolute pressure limited to 5.000000e+10 in 263121 cells on zone 900 

 turbulent viscosity limited to viscosity ratio of 1.000000e+05 in 253145 cells 
   429  6.6345e+09  1.2835e-02  4.8423e-02  4.7978e-02  2.2729e-02  9.9892e-01  4.9891e-01  0:32:08   71
 temperature limited to 5.000000e+03 in 750 cells on zone 900 in domain 1
  temperature limited to 5.000000e+03 on 173 faces

 absolute pressure limited to 5.000000e+10 in 263149 cells on zone 900 

 turbulent viscosity limited to viscosity ratio of 1.000000e+05 in 253194 cells 

  iter  continuity  x-velocity  y-velocity  z-velocity      energy           k       omega     time/iter
   430  6.6206e+09  1.3487e-02  4.9012e-02  4.6388e-02  2.2714e-02  9.9563e-01  4.9783e-01  0:31:22   70
 temperature limited to 5.000000e+03 in 3620 cells on zone 900 in domain 1
  temperature limited to 5.000000e+03 on 152 faces

 absolute pressure limited to 5.000000e+10 in 263132 cells on zone 900 

 turbulent viscosity limited to viscosity ratio of 1.000000e+05 in 253346 cells 
   431  6.6459e+09  1.3619e-02  5.0189e-02  4.7673e-02  2.4012e-02  9.9962e-01  4.9956e-01  0:30:42   69
 temperature limited to 5.000000e+03 in 2218 cells on zone 900 in domain 1
  temperature limited to 5.000000e+03 on 218 faces

 absolute pressure limited to 5.000000e+10 in 263129 cells on zone 900 

 turbulent viscosity limited to viscosity ratio of 1.000000e+05 in 252917 cells 
   432  6.5931e+09  1.4122e-02  5.0389e-02  4.8364e-02  2.3526e-02  9.9851e-01  4.9907e-01  0:30:17   68
 temperature limited to 5.000000e+03 in 3644 cells on zone 900 in domain 1
  temperature limited to 5.000000e+03 on 413 faces

 absolute pressure limited to 5.000000e+10 in 263135 cells on zone 900 

 turbulent viscosity limited to viscosity ratio of 1.000000e+05 in 253025 cells 
   433  6.7462e+09  1.2580e-02  4.8258e-02  4.8937e-02  2.3760e-02  9.9979e-01  4.9979e-01  0:30:14   67
 temperature limited to 5.000000e+03 in 3451 cells on zone 900 in domain 1
  temperature limited to 5.000000e+03 on 677 faces

 absolute pressure limited to 5.000000e+10 in 263124 cells on zone 900 

 turbulent viscosity limited to viscosity ratio of 1.000000e+05 in 252728 cells 
   434  6.6613e+09  1.2926e-02  4.8632e-02  4.9470e-02  2.3643e-02  9.9969e-01  4.9983e-01  0:29:29   66
 temperature limited to 5.000000e+03 in 3993 cells on zone 900 in domain 1
  temperature limited to 5.000000e+03 on 793 faces

 absolute pressure limited to 5.000000e+10 in 263130 cells on zone 900 

 turbulent viscosity limited to viscosity ratio of 1.000000e+05 in 253033 cells 
   435  6.7522e+09  1.2458e-02  4.7148e-02  4.9575e-02  2.4258e-02  9.9810e-01  4.9952e-01  0:29:17   65
 temperature limited to 5.000000e+03 in 4148 cells on zone 900 in domain 1
  temperature limited to 5.000000e+03 on 906 faces

 absolute pressure limited to 5.000000e+10 in 263121 cells on zone 900 

 turbulent viscosity limited to viscosity ratio of 1.000000e+05 in 252519 cells 
   436  6.8890e+09  1.3226e-02  4.7887e-02  4.8209e-02  2.2958e-02  9.9183e-01  4.9891e-01  0:29:00   64
 temperature limited to 5.000000e+03 in 4044 cells on zone 900 in domain 1
  temperature limited to 5.000000e+03 on 1086 faces

 absolute pressure limited to 5.000000e+10 in 263127 cells on zone 900 

 turbulent viscosity limited to viscosity ratio of 1.000000e+05 in 252952 cells 
   437  6.8427e+09  1.2201e-02  4.6780e-02  4.8285e-02  2.3489e-02  9.9888e-01  4.9902e-01  0:28:36   63
 temperature limited to 5.000000e+03 on 583 faces

 absolute pressure limited to 5.000000e+10 in 263129 cells on zone 900 

 turbulent viscosity limited to viscosity ratio of 1.000000e+05 in 252926 cells 
   438  6.8723e+09  1.2401e-02  4.8096e-02  4.8464e-02  2.3340e-02  9.9602e-01  4.9834e-01  0:28:13   62
 temperature limited to 5.000000e+03 in 4007 cells on zone 900 in domain 1
 
 absolute pressure limited to 5.000000e+10 in 263124 cells on zone 900 

 turbulent viscosity limited to viscosity ratio of 1.000000e+05 in 253103 cells 
   439  7.0421e+09  1.2728e-02  4.8171e-02  4.9393e-02  2.2796e-02  9.9236e-01  4.9658e-01  0:27:48   61
 temperature limited to 5.000000e+03 in 3 cells on zone 900 in domain 1
 
 absolute pressure limited to 5.000000e+10 in 263114 cells on zone 900 

 turbulent viscosity limited to viscosity ratio of 1.000000e+05 in 253143 cells 
   440  6.9088e+09  1.2571e-02  4.9076e-02  4.8063e-02  2.3019e-02  9.8693e-01  4.9430e-01  0:27:27   60
 temperature limited to 5.000000e+03 in 473 cells on zone 900 in domain 1
 
 absolute pressure limited to 5.000000e+10 in 263116 cells on zone 900 

 turbulent viscosity limited to viscosity ratio of 1.000000e+05 in 252837 cells 

  iter  continuity  x-velocity  y-velocity  z-velocity      energy           k       omega     time/iter
   441  6.9428e+09  1.2451e-02  5.0209e-02  4.9306e-02  2.3822e-02  9.8948e-01  4.9338e-01  0:27:04   59

 absolute pressure limited to 5.000000e+10 in 263119 cells on zone 900 

 turbulent viscosity limited to viscosity ratio of 1.000000e+05 in 252497 cells 
   442  7.0686e+09  1.3585e-02  5.1059e-02  4.8168e-02  2.3668e-02  9.9024e-01  4.9216e-01  0:26:36   58
 temperature limited to 5.000000e+03 in 124 cells on zone 900 in domain 1
 
 absolute pressure limited to 5.000000e+10 in 263124 cells on zone 900 

 turbulent viscosity limited to viscosity ratio of 1.000000e+05 in 252831 cells 
   443  7.0620e+09  1.2590e-02  4.8759e-02  4.6926e-02  2.3455e-02  9.9248e-01  4.9305e-01  0:26:20   57
 temperature limited to 5.000000e+03 in 3162 cells on zone 900 in domain 1
 
 absolute pressure limited to 5.000000e+10 in 263106 cells on zone 900 

 turbulent viscosity limited to viscosity ratio of 1.000000e+05 in 252627 cells 
   444  6.9625e+09  1.3148e-02  5.0819e-02  4.7834e-02  2.3301e-02  9.8853e-01  4.9165e-01  0:25:46   56
 temperature limited to 5.000000e+03 in 3687 cells on zone 900 in domain 1
 
 absolute pressure limited to 5.000000e+10 in 263135 cells on zone 900 

 turbulent viscosity limited to viscosity ratio of 1.000000e+05 in 253051 cells 
   445  7.1692e+09  1.2765e-02  4.9604e-02  4.8555e-02  2.3043e-02  9.9878e-01  4.9871e-01  0:25:21   55
 temperature limited to 5.000000e+03 in 1270 cells on zone 900 in domain 1
  temperature limited to 5.000000e+03 on 11 faces

 absolute pressure limited to 5.000000e+10 in 263128 cells on zone 900 

 turbulent viscosity limited to viscosity ratio of 1.000000e+05 in 252874 cells 
   446  7.0924e+09  1.2113e-02  4.9941e-02  4.8631e-02  2.3358e-02  9.9507e-01  4.9714e-01  0:24:35   54
 temperature limited to 5.000000e+03 in 107 cells on zone 900 in domain 1
  temperature limited to 5.000000e+03 on 14 faces

 absolute pressure limited to 5.000000e+10 in 263142 cells on zone 900 

 turbulent viscosity limited to viscosity ratio of 1.000000e+05 in 253123 cells 
   447  7.3486e+09  1.2712e-02  4.8293e-02  4.9217e-02  2.4085e-02  9.9079e-01  4.9507e-01  0:24:27   53

 absolute pressure limited to 5.000000e+10 in 263149 cells on zone 900 

 turbulent viscosity limited to viscosity ratio of 1.000000e+05 in 252931 cells 
   448  7.6237e+09  1.3340e-02  4.9648e-02  4.7196e-02  2.2861e-02  9.9734e-01  4.9733e-01  0:24:14   52
 temperature limited to 5.000000e+03 in 85 cells on zone 900 in domain 1
 
 absolute pressure limited to 5.000000e+10 in 263106 cells on zone 900 

 turbulent viscosity limited to viscosity ratio of 1.000000e+05 in 252979 cells 
   449  7.5069e+09  1.1836e-02  4.6947e-02  4.6575e-02  2.5160e-02  9.9799e-01  4.9808e-01  0:23:39   51
 temperature limited to 5.000000e+03 in 634 cells on zone 900 in domain 1
 
 absolute pressure limited to 5.000000e+10 in 263138 cells on zone 900 

 turbulent viscosity limited to viscosity ratio of 1.000000e+05 in 252653 cells 
   450  7.6421e+09  1.3232e-02  4.8959e-02  4.6214e-02  2.3016e-02  9.9123e-01  4.9565e-01  0:23:06   50
 temperature limited to 5.000000e+03 in 3207 cells on zone 900 in domain 1
 
 absolute pressure limited to 5.000000e+10 in 263119 cells on zone 900 

 turbulent viscosity limited to viscosity ratio of 1.000000e+05 in 252425 cells 
   451  7.9518e+09  1.2294e-02  4.6796e-02  4.8080e-02  2.3703e-02  9.8536e-01  4.9279e-01  0:22:38   49
 temperature limited to 5.000000e+03 in 23 cells on zone 900 in domain 1
 
 absolute pressure limited to 5.000000e+10 in 263132 cells on zone 900 

 turbulent viscosity limited to viscosity ratio of 1.000000e+05 in 252542 cells 

  iter  continuity  x-velocity  y-velocity  z-velocity      energy           k       omega     time/iter
   452  8.0719e+09  1.1939e-02  4.7013e-02  4.6746e-02  2.3350e-02  9.8941e-01  4.9210e-01  0:22:26   48
 temperature limited to 5.000000e+03 in 14 cells on zone 900 in domain 1
 
 absolute pressure limited to 5.000000e+10 in 263125 cells on zone 900 

 turbulent viscosity limited to viscosity ratio of 1.000000e+05 in 253016 cells 
   453  8.2340e+09  1.2336e-02  4.7635e-02  4.6921e-02  2.4341e-02  9.8906e-01  4.9141e-01  0:21:51   47
 temperature limited to 5.000000e+03 in 6 cells on zone 900 in domain 1
 
 absolute pressure limited to 5.000000e+10 in 263114 cells on zone 900 

 turbulent viscosity limited to viscosity ratio of 1.000000e+05 in 252776 cells 
   454  8.3526e+09  1.1931e-02  4.7955e-02  4.8178e-02  2.2521e-02  9.8622e-01  4.8914e-01  0:21:21   46
 temperature limited to 5.000000e+03 in 3 cells on zone 900 in domain 1
 
 absolute pressure limited to 5.000000e+10 in 263132 cells on zone 900 

 turbulent viscosity limited to viscosity ratio of 1.000000e+05 in 253344 cells 
   455  8.4896e+09  1.1652e-02  4.7767e-02  4.8376e-02  2.2752e-02  9.9491e-01  4.9556e-01  0:21:10   45
 temperature limited to 5.000000e+03 in 8 cells on zone 900 in domain 1
 
 absolute pressure limited to 5.000000e+10 in 263139 cells on zone 900 

 turbulent viscosity limited to viscosity ratio of 1.000000e+05 in 252671 cells 
   456  9.0375e+09  1.0809e-02  4.7310e-02  4.7988e-02  2.2248e-02  9.9029e-01  4.9297e-01  0:20:43   44
 temperature limited to 5.000000e+03 in 10 cells on zone 900 in domain 1
 
 absolute pressure limited to 5.000000e+10 in 263133 cells on zone 900 

 turbulent viscosity limited to viscosity ratio of 1.000000e+05 in 253690 cells 
   457  9.5381e+09  1.1464e-02  4.7130e-02  4.6274e-02  2.2618e-02  9.9767e-01  4.9774e-01  0:20:10   43
 temperature limited to 5.000000e+03 in 14 cells on zone 900 in domain 1
 
 absolute pressure limited to 5.000000e+10 in 263128 cells on zone 900 

 turbulent viscosity limited to viscosity ratio of 1.000000e+05 in 253089 cells 
   458  9.8404e+09  1.1303e-02  4.5890e-02  4.6065e-02  2.3380e-02  9.8961e-01  4.9499e-01  0:19:37   42
 temperature limited to 5.000000e+03 in 85 cells on zone 900 in domain 1
 
 absolute pressure limited to 5.000000e+10 in 263136 cells on zone 900 

 turbulent viscosity limited to viscosity ratio of 1.000000e+05 in 253683 cells 
   459  1.0032e+10  1.1158e-02  4.4754e-02  4.6417e-02  2.4342e-02  9.8876e-01  4.9451e-01  0:19:10   41
 temperature limited to 5.000000e+03 in 194 cells on zone 900 in domain 1
 
 absolute pressure limited to 5.000000e+10 in 263147 cells on zone 900 

 turbulent viscosity limited to viscosity ratio of 1.000000e+05 in 253253 cells 
   460  1.0940e+10  1.1317e-02  4.5655e-02  4.7958e-02  2.2580e-02  9.9984e-01  4.9986e-01  0:18:40   40

 absolute pressure limited to 5.000000e+10 in 263137 cells on zone 900 

 turbulent viscosity limited to viscosity ratio of 1.000000e+05 in 253830 cells 
   461  1.1811e+10  1.0358e-02  4.6100e-02  4.8990e-02  2.4413e-02  9.9909e-01  4.9964e-01  0:18:07   39

 absolute pressure limited to 5.000000e+10 in 263130 cells on zone 900 

 turbulent viscosity limited to viscosity ratio of 1.000000e+05 in 253377 cells 
   462  1.1951e+10  9.3810e-03  4.5688e-02  4.9515e-02  2.4940e-02  9.9498e-01  4.9893e-01  0:17:33   38

 absolute pressure limited to 5.000000e+10 in 263143 cells on zone 900 

 turbulent viscosity limited to viscosity ratio of 1.000000e+05 in 253773 cells 

  iter  continuity  x-velocity  y-velocity  z-velocity      energy           k       omega     time/iter
   463  1.2861e+10  1.0309e-02  4.4476e-02  4.8248e-02  2.4042e-02  9.9357e-01  4.9783e-01  0:17:06   37

 absolute pressure limited to 5.000000e+10 in 263113 cells on zone 900 

 turbulent viscosity limited to viscosity ratio of 1.000000e+05 in 253324 cells 
   464  1.3997e+10  9.5889e-03  4.4675e-02  4.5973e-02  2.2889e-02  9.9719e-01  4.9799e-01  0:16:38   36

 absolute pressure limited to 5.000000e+10 in 263133 cells on zone 900 

 turbulent viscosity limited to viscosity ratio of 1.000000e+05 in 253680 cells 
   465  1.4731e+10  8.8446e-03  4.2786e-02  4.6696e-02  2.8536e-02  9.8959e-01  4.9524e-01  0:16:05   35

 absolute pressure limited to 5.000000e+10 in 263150 cells on zone 900 

 turbulent viscosity limited to viscosity ratio of 1.000000e+05 in 253384 cells 
   466  1.5970e+10  9.3683e-03  4.5915e-02  4.7139e-02  2.9213e-02  9.7397e-01  4.8983e-01  0:15:43   34

 absolute pressure limited to 5.000000e+10 in 263149 cells on zone 900 

 turbulent viscosity limited to viscosity ratio of 1.000000e+05 in 253876 cells 
   467  1.8102e+10  8.1460e-03  4.5972e-02  5.0186e-02  2.7064e-02  9.9403e-01  4.9507e-01  0:15:10   33

 absolute pressure limited to 5.000000e+10 in 263145 cells on zone 900 

 turbulent viscosity limited to viscosity ratio of 1.000000e+05 in 253663 cells 
   468  1.9742e+10  8.0736e-03  4.7431e-02  4.9753e-02  2.5923e-02  9.7767e-01  4.8972e-01  0:14:31   32

 absolute pressure limited to 5.000000e+10 in 263123 cells on zone 900 

 turbulent viscosity limited to viscosity ratio of 1.000000e+05 in 254152 cells 
   469  1.9692e+10  8.0348e-03  4.6906e-02  4.8703e-02  3.0052e-02  9.8669e-01  4.8937e-01  0:14:05   31

 absolute pressure limited to 5.000000e+10 in 263160 cells on zone 900 

 turbulent viscosity limited to viscosity ratio of 1.000000e+05 in 253853 cells 
   470  2.0746e+10  8.7204e-03  4.7916e-02  4.9115e-02  2.6948e-02  9.9671e-01  4.9639e-01  0:13:39   30

 absolute pressure limited to 5.000000e+10 in 263145 cells on zone 900 

 turbulent viscosity limited to viscosity ratio of 1.000000e+05 in 254086 cells 
   471  2.4143e+10  8.0776e-03  4.6680e-02  4.9502e-02  2.7648e-02  9.9323e-01  4.9517e-01  0:13:10   29

 absolute pressure limited to 5.000000e+10 in 263119 cells on zone 900 

 turbulent viscosity limited to viscosity ratio of 1.000000e+05 in 253708 cells 
   472  2.5634e+10  8.0035e-03  4.7237e-02  5.0844e-02  2.9942e-02  9.9353e-01  4.9483e-01  0:12:43   28

 absolute pressure limited to 5.000000e+10 in 263134 cells on zone 900 

 turbulent viscosity limited to viscosity ratio of 1.000000e+05 in 254263 cells 
   473  2.8220e+10  7.4801e-03  4.6514e-02  4.9723e-02  3.2219e-02  9.9936e-01  4.9917e-01  0:12:15   27

 absolute pressure limited to 5.000000e+10 in 263127 cells on zone 900 

 turbulent viscosity limited to viscosity ratio of 1.000000e+05 in 253889 cells 

  iter  continuity  x-velocity  y-velocity  z-velocity      energy           k       omega     time/iter
   474  3.0624e+10  7.4369e-03  4.4940e-02  4.9080e-02  3.1051e-02  9.9605e-01  4.9783e-01  0:11:56   26

 absolute pressure limited to 5.000000e+10 in 263115 cells on zone 900 

 turbulent viscosity limited to viscosity ratio of 1.000000e+05 in 254296 cells 
   475  3.3004e+10  6.7986e-03  4.2516e-02  4.9806e-02  3.2360e-02  9.8507e-01  4.9466e-01  0:11:28   25

 absolute pressure limited to 5.000000e+10 in 263123 cells on zone 900 

 turbulent viscosity limited to viscosity ratio of 1.000000e+05 in 253837 cells 
   476  3.6575e+10  6.7332e-03  4.1693e-02  4.7414e-02  3.3193e-02  9.9827e-01  4.9838e-01  0:11:04   24

 absolute pressure limited to 5.000000e+10 in 263120 cells on zone 900 

 turbulent viscosity limited to viscosity ratio of 1.000000e+05 in 254188 cells 
   477  3.8378e+10  6.6997e-03  4.2006e-02  4.9041e-02  3.3257e-02  9.9228e-01  4.9646e-01  0:10:39   23

 absolute pressure limited to 5.000000e+10 in 263125 cells on zone 900 

 turbulent viscosity limited to viscosity ratio of 1.000000e+05 in 253649 cells 
   478  4.2704e+10  6.8498e-03  4.3475e-02  5.0482e-02  3.3056e-02  9.9739e-01  4.9764e-01  0:10:28   22

 absolute pressure limited to 5.000000e+10 in 263134 cells on zone 900 

 turbulent viscosity limited to viscosity ratio of 1.000000e+05 in 254178 cells 
   479  4.8189e+10  6.0770e-03  4.4626e-02  5.0916e-02  3.3414e-02  9.9267e-01  4.9478e-01  0:09:59   21

 absolute pressure limited to 5.000000e+10 in 263115 cells on zone 900 

 turbulent viscosity limited to viscosity ratio of 1.000000e+05 in 253654 cells 
   480  4.9211e+10  6.2965e-03  4.6196e-02  4.8333e-02  3.1049e-02  9.8928e-01  4.9308e-01  0:09:30   20
 temperature limited to 5.000000e+03 in 5 cells on zone 900 in domain 1
 
 absolute pressure limited to 5.000000e+10 in 263091 cells on zone 900 

 turbulent viscosity limited to viscosity ratio of 1.000000e+05 in 254180 cells 
   481  5.1693e+10  6.3007e-03  4.6633e-02  4.8789e-02  3.2496e-02  9.8931e-01  4.9265e-01  0:09:04   19
 temperature limited to 5.000000e+03 in 49 cells on zone 900 in domain 1
 
 absolute pressure limited to 5.000000e+10 in 263103 cells on zone 900 

 turbulent viscosity limited to viscosity ratio of 1.000000e+05 in 253556 cells 
   482  5.9713e+10  6.7841e-03  4.5359e-02  4.9873e-02  3.5494e-02  9.6136e-01  4.8659e-01  0:08:31   18
 temperature limited to 5.000000e+03 in 290 cells on zone 900 in domain 1
 
 absolute pressure limited to 5.000000e+10 in 263101 cells on zone 900 

 turbulent viscosity limited to viscosity ratio of 1.000000e+05 in 254113 cells 
   483  6.6662e+10  6.1712e-03  4.6430e-02  5.3283e-02  3.8547e-02  9.9725e-01  4.9657e-01  0:08:00   17
 temperature limited to 5.000000e+03 in 435 cells on zone 900 in domain 1
 
 absolute pressure limited to 5.000000e+10 in 263087 cells on zone 900 

 turbulent viscosity limited to viscosity ratio of 1.000000e+05 in 253565 cells 
   484  7.2514e+10  5.9916e-03  4.7936e-02  5.3061e-02  3.9085e-02  9.9663e-01  4.9691e-01  0:07:33   16
 temperature limited to 5.000000e+03 in 475 cells on zone 900 in domain 1
 
 absolute pressure limited to 5.000000e+10 in 263111 cells on zone 900 

 turbulent viscosity limited to viscosity ratio of 1.000000e+05 in 254174 cells 

  iter  continuity  x-velocity  y-velocity  z-velocity      energy           k       omega     time/iter
   485  7.8427e+10  5.6499e-03  4.6190e-02  5.2746e-02  3.9767e-02  9.9529e-01  4.9620e-01  0:07:08   15
