/opt/crc/a/ansys/2024R1/v241/fluent/fluent24.1.0/bin/fluent -r24.1.0 3ddp -t4 -g
/opt/crc/a/ansys/2024R1/v241/fluent/fluent24.1.0/cortex/lnamd64/cortex.24.1.0 -f fluent -g (fluent "3ddp -pshmem  -host -r24.1.0 -t4 -mpi=intel -path/opt/crc/a/ansys/2024R1/v241/fluent -ssh")

Opening input/output transcript to file "/tmp/1007966.1.long/worker-241760-2811645/task.13/fluent-20241130-065223-2813012.trn".
Auto-Transcript Start Time:  06:52:23, 30 Nov 2024 
/opt/crc/a/ansys/2024R1/v241/fluent/fluent24.1.0/bin/fluent -r24.1.0 3ddp -pshmem -host -t4 -mpi=intel -path/opt/crc/a/ansys/2024R1/v241/fluent -ssh -cx d32cepyc231.crc.nd.edu:39951:35709
Starting /opt/crc/a/ansys/2024R1/v241/fluent/fluent24.1.0/lnamd64/3ddp_host/fluent.24.1.0 host -cx d32cepyc231.crc.nd.edu:39951:35709 "(list (rpsetvar (QUOTE parallel/function) "fluent 3ddp -flux -node -r24.1.0 -t4 -pshmem -mpi=intel -ssh") (rpsetvar (QUOTE parallel/rhost) "") (rpsetvar (QUOTE parallel/ruser) "") (rpsetvar (QUOTE parallel/nprocs_string) "4") (rpsetvar (QUOTE parallel/auto-spawn?) #t) (rpsetvar (QUOTE parallel/trace-level) 0) (rpsetvar (QUOTE parallel/remote-shell) 1) (rpsetvar (QUOTE parallel/path) "/opt/crc/a/ansys/2024R1/v241/fluent") (rpsetvar (QUOTE parallel/hostsfile) "") (rpsetvar (QUOTE gpuapp/devices) ""))"

              Welcome to ANSYS Fluent 2024 R1

              Copyright 1987-2024 ANSYS, Inc. All Rights Reserved.
              Unauthorized use, distribution or duplication is prohibited.
              This product is subject to U.S. laws governing export and re-export.
              For full Legal Notice, see documentation.

Build Time: Nov 22 2023 10:07:25 EST  Build Id: 10184  
 
Connected License Server List:	7504@linux5-lic.crc.nd.edu

     --------------------------------------------------------------
     This is an academic version of ANSYS FLUENT. Usage of this product
     license is limited to the terms and conditions specified in your ANSYS
     license form, additional terms section.
     --------------------------------------------------------------
Host spawning Node 0 on machine "d32cepyc231.crc.nd.edu" (unix).
/opt/crc/a/ansys/2024R1/v241/fluent/fluent24.1.0/bin/fluent -r24.1.0 3ddp -flux -node -t4 -pshmem -mpi=intel -ssh -mport 10.32.91.229:10.32.91.229:42751:0
Starting /opt/crc/a/ansys/2024R1/v241/fluent/fluent24.1.0/multiport/mpi/lnamd64/intel2021/bin/mpirun --rsh=ssh -f /tmp/fluent-appfile.etracey.2814352 -genv I_MPI_FABRICS shm -genv FLUENT_ARCH lnamd64 -genv I_MPI_DEBUG 0 -genv I_MPI_ADJUST_GATHERV 3 -genv I_MPI_ADJUST_ALLREDUCE 2 -genv I_MPI_PLATFORM auto -genv PYTHONHOME /opt/crc/a/ansys/2024R1/v241/fluent/fluent24.1.0/../../commonfiles/CPython/3_10/linx64/Release/python -genv FLUENT_PROD_DIR /opt/crc/a/ansys/2024R1/v241/fluent/fluent24.1.0 -genv FLUENT_AFFINITY 0 -genv I_MPI_PIN enable -genv KMP_AFFINITY disabled -n 4 /opt/crc/a/ansys/2024R1/v241/fluent/fluent24.1.0/lnamd64/3ddp_node/fluent_mpi.24.1.0 node -mpiw intel -pic shmem -mport 10.32.91.229:10.32.91.229:42751:0

-------------------------------------------------------------------------------
ID    Hostname              Core  O.S.      PID      Vendor                
-------------------------------------------------------------------------------
n3    d32cepyc231.crc.nd.e  4/64  Linux-64  2814508  AMD EPYC 7543 32-Core 
n2    d32cepyc231.crc.nd.e  3/64  Linux-64  2814506  AMD EPYC 7543 32-Core 
n1    d32cepyc231.crc.nd.e  2/64  Linux-64  2814504  AMD EPYC 7543 32-Core 
n0*   d32cepyc231.crc.nd.e  1/64  Linux-64  2814502  AMD EPYC 7543 32-Core 
host  d32cepyc231.crc.nd.e        Linux-64  2813735  AMD EPYC 7543 32-Core 

MPI Option Selected: intel
Selected system interconnect: shared-memory
-------------------------------------------------------------------------------


Initializing SGE
Done.
Cleanup script file is /tmp/1007966.1.long/worker-241760-2811645/task.13/cleanup-fluent-d32cepyc231.crc.nd.edu-2813735.sh
Key Behavioral Changes:
Fluent Guided Meshing Workflows: 
Workflow template files (.wft) are now saved by default whenever the mesh is saved. You can change the automatic creation of .wft files in Preferences. 
Journaling: 
When Ansys Fluent encounters an invalid input in a journal file that is being replayed, it now raises an error condition and aborts the journal processing. 
Turbulence: 
The value of kappa used in the Spalart-Allmaras model for interior terms was inconsistent with the reference publications of the model. Fluent historically used a value of 0.4187, but to produce results consistent with the published model, the value should be 0.41. This issue was first addressed in a previous Fluent version and access to the kappa value was given in the GUI while keeping the old default of 0.4187. In Fluent 2024 R1, the default value is now changed to 0.41. 
Turbomachinery: 
For Blade Film Cooling, you can now specify stationary holes on the surfaces of a moving/rotating cell zone in transient cases. 
Boundaries previously referred to as "casings" in the Turbo Topology definition are now referred to as "shrouds." 
Density-Based Solver: 
The High Speed Numerics have been updated to increase the robustness of the Roe-FDS numerical flux against shock-instabilities and the carbuncle phenomenon. This modification may produce a slight solution change for cases combining Roe-FDS and HSN. 
Multiphase Models: 
Modeling of open channel flows in conjunction with the translation moving reference frame (MRF) has been improved resulting in more accurate and stable solution. In addition, a solution methodology has been suggested to provide better stability for high-speed hull simulations. 
Parallel Processing: 
Using dynamic process spawning now requires that you manually specify the interconnect as -pethernet for shared memory or distributed memory without InfiniBand, and -pib.ofed for distributed memory over InfiniBand. 
Refer to the Ansys, Inc. Release Notes for a full listing of the new features included in Ansys Fluent 2024 R1. 
> Fast-loading "/opt/crc/a/ansys/2024R1/v241/fluent/fluent24.1.0/addons/afd/lib/hdfio.bin"
Done.
WARNING: Rank:0 Machine d32cepyc231.crc.nd.edu has 22 % of RAM filled with file buffer caches.
This can cause potential performance issues. Please use -cflush flag to flush the cache. 


Reading from d32cepyc231.crc.nd.edu:"/tmp/1007966.1.long/worker-241760-2811645/task.13/case.cas.h5" in NODE0 mode ...
  Reading mesh ...
      263237 cells,     1 cell zone  ...
         263237 polyhedra cells,  zone id: 900
     1517660 faces,     5 face zones ...
            514 polygonal pressure-far-field faces,  zone id: 17
            512 polygonal pressure-far-field faces,  zone id: 18
           4017 polygonal pressure-far-field faces,  zone id: 19
          30625 polygonal wall faces,  zone id: 20
        1481992 polygonal interior faces,  zone id: 899
     1099102 nodes,     1 node zone  ...
  Done.


Building...
     mesh
	auto partitioning mesh by Metis (fast),
	distributing mesh
		parts....,
		faces....,
		nodes....,
		cells....,
        bandwidth reduction using Reverse Cuthill-McKee: 67505/4420 = 15.2726
  Reading boundary layer flags ...
  Done.

     materials,
     interface,
     domains,
	mixture
     zones,
	inlet
	outlet
	farfield
	launchvehicle
	interior--solid
	solid
     parallel,
Done.
Warning: Pressure far-field boundary condition can only be used with ideal gas law.
  Please change either the boundary condition type or enable ideal gas law.
  Solver cannot proceed until this is fixed.
	Warning: Pressure far-field boundary condition can only be used with ideal gas law.
  Please change either the boundary condition type or enable ideal gas law.
  Solver cannot proceed until this is fixed.
	
> adjoint/                parallel/               server/
define/                 parametric-study/       solve/
display/                plot/                   surface/
exit                    preferences/            turbo-workflow/
file/                   print-license-usage     views/
mesh/                   report/

> air is a fluid

Density
no data required.


Note: Enabling energy equation as required by material density method.

> adjoint/                parallel/               server/
define/                 parametric-study/       solve/
display/                plot/                   surface/
exit                    preferences/            turbo-workflow/
file/                   print-license-usage     views/
mesh/                   report/

> 
> adjoint/                parallel/               server/
define/                 parametric-study/       solve/
display/                plot/                   surface/
exit                    preferences/            turbo-workflow/
file/                   print-license-usage     views/
mesh/                   report/

> 
> adjoint/                parallel/               server/
define/                 parametric-study/       solve/
display/                plot/                   surface/
exit                    preferences/            turbo-workflow/
file/                   print-license-usage     views/
mesh/                   report/

> (farfield outlet inlet)

> (farfield outlet inlet)

> (farfield outlet inlet)

> adjoint/                parallel/               server/
define/                 parametric-study/       solve/
display/                plot/                   surface/
exit                    preferences/            turbo-workflow/
file/                   print-license-usage     views/
mesh/                   report/

> (launchvehicle)

> adjoint/                parallel/               server/
define/                 parametric-study/       solve/
display/                plot/                   surface/
exit                    preferences/            turbo-workflow/
file/                   print-license-usage     views/
mesh/                   report/

> 
> 
> 
> 
> 
> 
> adjoint/                parallel/               server/
define/                 parametric-study/       solve/
display/                plot/                   surface/
exit                    preferences/            turbo-workflow/
file/                   print-license-usage     views/
mesh/                   report/

> 
> 
> 
> adjoint/                parallel/               server/
define/                 parametric-study/       solve/
display/                plot/                   surface/
exit                    preferences/            turbo-workflow/
file/                   print-license-usage     views/
mesh/                   report/

> 
> 
> 
> adjoint/                parallel/               server/
define/                 parametric-study/       solve/
display/                plot/                   surface/
exit                    preferences/            turbo-workflow/
file/                   print-license-usage     views/
mesh/                   report/

> 
> adjoint/                parallel/               server/
define/                 parametric-study/       solve/
display/                plot/                   surface/
exit                    preferences/            turbo-workflow/
file/                   print-license-usage     views/
mesh/                   report/

> 
Initialize using the hybrid initialization method.

Checking case topology... 
-This case has multiple farfield bc 
-Case will be initialized with constant parameters

	iter		scalar-0

	1		1.000000e+00
	2		4.765770e-04
	3		6.897330e-05
	4		1.191911e-05
	5		2.566155e-06
	6		6.210371e-07
	7		1.785627e-07
	8		7.575834e-08
	9		3.755481e-08
	10		2.225035e-08

Hybrid initialization is done.

Note: Settings to improve the robustness of pathline and
      particle tracking have been automatically enabled.


> 
  iter  continuity  x-velocity  y-velocity  z-velocity      energy           k       omega     time/iter
     1  1.0000e+00  2.6504e-05  4.3112e-05  4.4334e-05  4.4112e-07  8.2403e-01  4.4801e-01  4:04:52  499
     2  8.7435e-01  1.9596e-05  3.1812e-05  2.5864e-05  3.6163e-07  7.2990e-01  4.2034e-01  4:05:03  498
     3  1.0000e+00  1.7860e-05  3.1544e-05  2.0095e-05  3.0524e-07  5.8021e-01  3.8050e-01  4:02:14  497
     4  1.0000e+00  1.7799e-05  5.2426e-05  1.5319e-05  4.9132e-07  3.6720e-01  3.2592e-01  4:00:48  496
     5  1.0000e+00  2.6025e-05  1.0957e-04  2.3182e-05  8.5358e-07  1.5819e-01  2.6060e-01  4:05:22  495
     6  2.3733e+00  4.6967e-05  2.6525e-04  4.0757e-05  1.9614e-06  6.9326e-02  1.9093e-01  4:05:51  494
     7  6.2915e+00  1.4702e-04  6.9840e-04  9.5175e-05  5.8057e-06  1.3160e-01  1.4172e-01  4:07:48  493
     8  1.7473e+01  4.2463e-04  1.9669e-03  2.9964e-04  6.9695e-05  2.4975e-01  1.5435e-01  4:07:50  492
     9  3.2367e+01  1.3658e-03  4.7369e-03  7.5495e-04  7.0353e-05  3.3594e-01  1.8447e-01  4:02:22  491
    10  4.1704e+01  1.6503e-03  4.3150e-03  7.1792e-04  2.3028e-04  3.5309e-01  1.8949e-01  3:55:59  490
    11  5.8862e+01  5.2517e-03  9.3955e-03  1.5107e-03  1.7919e-04  3.9438e-01  2.3463e-01  3:54:18  489

  iter  continuity  x-velocity  y-velocity  z-velocity      energy           k       omega     time/iter
    12  7.1481e+01  4.3701e-03  8.9080e-03  1.7470e-03  2.6113e-04  4.2137e-01  2.4622e-01  3:52:16  488
    13  7.4048e+01  7.0657e-03  1.1210e-02  1.7614e-03  2.6717e-04  4.2202e-01  2.5414e-01  3:48:52  487
    14  9.2733e+01  6.5140e-03  1.2552e-02  2.6728e-03  4.4219e-04  5.0564e-01  3.1178e-01  3:48:16  486
    15  9.7820e+01  8.4635e-03  1.8063e-02  2.7093e-03  4.6560e-04  5.3416e-01  3.4497e-01  3:45:00  485
    16  1.2483e+02  1.0716e-02  2.0507e-02  4.0337e-03  8.5311e-04  5.6014e-01  3.5108e-01  3:45:06  484
    17  1.2394e+02  1.2425e-02  2.8550e-02  4.0643e-03  8.9483e-04  5.6509e-01  3.7061e-01  3:44:30  483
    18  1.6253e+02  1.4817e-02  3.4032e-02  4.7822e-03  1.0491e-03  6.4565e-01  4.1672e-01  3:42:08  482
    19  1.5272e+02  1.7702e-02  3.1904e-02  5.0314e-03  9.6020e-04  5.9022e-01  3.8806e-01  3:43:43  481
    20  1.9284e+02  2.0102e-02  4.1683e-02  6.9729e-03  1.6283e-03  5.6381e-01  3.7613e-01  3:42:58  480
    21  1.8080e+02  2.0258e-02  4.9751e-02  7.0030e-03  1.3777e-03  5.8709e-01  3.9406e-01  3:41:33  479
    22  2.2561e+02  2.9739e-02  5.0081e-02  8.5697e-03  1.6740e-03  6.8448e-01  4.5501e-01  3:41:40  478

  iter  continuity  x-velocity  y-velocity  z-velocity      energy           k       omega     time/iter
    23  2.0256e+02  2.9370e-02  4.2821e-02  8.9909e-03  1.4961e-03  5.6917e-01  3.7683e-01  3:43:14  477
    24  2.4419e+02  3.0520e-02  6.6439e-02  1.1040e-02  3.1371e-03  5.6393e-01  4.0198e-01  3:42:48  476
    25  2.3160e+02  3.1392e-02  6.8760e-02  1.3519e-02  2.6631e-03  6.1237e-01  4.1240e-01  3:42:41  475
    26  2.4357e+02  4.0353e-02  6.6974e-02  1.3667e-02  3.2226e-03  9.0198e-01  6.7359e-01  3:41:30  474
    27  2.4912e+02  4.7771e-02  6.3257e-02  1.4979e-02  2.1743e-03  8.4195e-01  4.6729e-01  3:41:10  473
    28  2.8063e+02  4.6612e-02  7.5605e-02  1.6215e-02  2.6218e-03  7.0574e-01  4.6603e-01  3:40:51  472
    29  2.5969e+02  4.6304e-02  7.7893e-02  1.6948e-02  3.6187e-03  6.9534e-01  4.5466e-01  3:40:41  471
    30  2.8826e+02  5.8713e-02  7.8913e-02  1.7305e-02  3.7477e-03  6.7929e-01  4.4853e-01  3:38:56  470
    31  2.8592e+02  6.2427e-02  7.3489e-02  1.9799e-02  4.4984e-03  7.1855e-01  5.1130e-01  3:38:21  469
    32  2.9514e+02  5.2890e-02  9.3470e-02  1.7901e-02  4.4165e-03  9.1264e-01  5.8060e-01  3:38:36  468
    33  3.2214e+02  6.3625e-02  9.3880e-02  2.0883e-02  6.2554e-03  8.4820e-01  4.8180e-01  3:38:36  467

  iter  continuity  x-velocity  y-velocity  z-velocity      energy           k       omega     time/iter
    34  3.1071e+02  7.7643e-02  7.4740e-02  2.1054e-02  4.7325e-03  7.3469e-01  4.7933e-01  3:37:47  466
    35  3.3641e+02  6.9534e-02  8.6424e-02  2.1362e-02  5.4894e-03  8.7514e-01  5.8031e-01  3:36:52  465
    36  3.3006e+02  6.6675e-02  8.8006e-02  2.1134e-02  4.2278e-03  8.3017e-01  4.7919e-01  3:36:31  464
    37  3.6988e+02  7.0201e-02  8.5746e-02  2.0848e-02  7.4461e-03  8.5841e-01  5.1642e-01  3:36:30  463
    38  3.4637e+02  7.5299e-02  7.8703e-02  2.3336e-02  4.3484e-03  8.6788e-01  4.7862e-01  3:36:08  462
    39  3.7260e+02  6.4957e-02  9.4292e-02  2.2594e-02  5.4306e-03  9.2183e-01  5.5967e-01  3:37:26  461
    40  3.7533e+02  5.7687e-02  9.8814e-02  2.2103e-02  6.0588e-03  8.3935e-01  4.7322e-01  3:38:23  460
    41  3.8747e+02  7.3626e-02  7.7337e-02  2.1699e-02  5.5189e-03  8.4840e-01  5.1412e-01  3:37:30  459
    42  3.9459e+02  6.3631e-02  8.8732e-02  2.1822e-02  4.9007e-03  8.1290e-01  5.0931e-01  3:37:41  458
    43  3.9664e+02  6.8098e-02  9.2288e-02  2.3553e-02  5.3933e-03  8.3868e-01  5.0667e-01  3:34:54  457
    44  4.1493e+02  6.3395e-02  8.9224e-02  2.1019e-02  5.7420e-03  8.5015e-01  4.8553e-01  3:33:33  456

  iter  continuity  x-velocity  y-velocity  z-velocity      energy           k       omega     time/iter
    45  4.2790e+02  6.1757e-02  9.2092e-02  2.1971e-02  6.0510e-03  7.7313e-01  4.9105e-01  3:33:52  455
    46  4.4276e+02  6.5055e-02  8.8855e-02  2.2338e-02  1.4283e-02  7.1212e-01  4.7984e-01  3:34:12  454
    47  4.4912e+02  6.5401e-02  1.0385e-01  2.1480e-02  7.3143e-03  1.1379e+00  8.7242e-01  3:33:23  453
    48  4.5989e+02  6.4320e-02  8.4560e-02  2.1817e-02  5.5139e-03  8.6555e-01  4.6880e-01  3:30:31  452
    49  4.7439e+02  6.4890e-02  8.6606e-02  2.2506e-02  6.0052e-03  8.4049e-01  5.2308e-01  3:29:50  451
    50  4.9206e+02  6.1667e-02  9.1266e-02  2.3158e-02  6.0865e-03  7.9937e-01  4.8236e-01  3:29:26  450
    51  4.7981e+02  6.1127e-02  9.0786e-02  2.2435e-02  5.5963e-03  7.6668e-01  4.9785e-01  3:29:42  449
    52  5.1527e+02  5.9428e-02  9.8442e-02  2.5160e-02  1.0445e-02  8.1704e-01  5.4269e-01  3:30:58  448
    53  5.2242e+02  7.4823e-02  8.4194e-02  2.1465e-02  7.1445e-03  7.8651e-01  5.1869e-01  3:30:17  447
    54  5.4383e+02  6.5312e-02  8.9024e-02  2.2535e-02  8.6852e-03  9.4251e-01  5.6405e-01  3:28:03  446
    55  5.3932e+02  6.2078e-02  9.0027e-02  2.2259e-02  8.4605e-03  8.9727e-01  5.0947e-01  3:29:22  445

  iter  continuity  x-velocity  y-velocity  z-velocity      energy           k       omega     time/iter
    56  5.7494e+02  7.3203e-02  8.9291e-02  2.3698e-02  9.1492e-03  9.0930e-01  5.1964e-01  3:27:12  444
    57  5.7853e+02  6.5925e-02  8.6559e-02  2.3630e-02  6.8749e-03  8.2365e-01  4.9556e-01  3:23:55  443
    58  6.1032e+02  6.1727e-02  8.9078e-02  2.4030e-02  8.2626e-03  8.1466e-01  5.0224e-01  3:21:59  442
    59  6.1339e+02  6.2634e-02  9.3068e-02  2.3325e-02  8.4608e-03  7.3587e-01  5.0711e-01  3:20:04  441
    60  6.4226e+02  7.0276e-02  8.3074e-02  2.3748e-02  1.0310e-02  7.7465e-01  5.2398e-01  3:20:16  440
    61  6.5019e+02  7.0330e-02  8.2739e-02  2.4138e-02  8.1831e-03  8.2154e-01  5.3021e-01  3:20:46  439
    62  6.9103e+02  6.7168e-02  8.8941e-02  2.6058e-02  9.2762e-03  8.1321e-01  5.3864e-01  3:19:23  438
    63  7.0004e+02  6.6542e-02  9.1403e-02  2.5194e-02  9.8246e-03  8.3678e-01  4.9729e-01  3:17:58  437
    64  7.1370e+02  7.3550e-02  9.0947e-02  2.6133e-02  1.0223e-02  8.2956e-01  5.1792e-01  3:14:36  436
    65  7.3010e+02  7.4835e-02  9.4134e-02  2.5982e-02  8.9661e-03  8.8762e-01  5.3948e-01  3:15:40  435
    66  7.7561e+02  6.9283e-02  9.6298e-02  2.5892e-02  1.0108e-02  8.4653e-01  5.2215e-01  3:16:07  434

  iter  continuity  x-velocity  y-velocity  z-velocity      energy           k       omega     time/iter
    67  7.4988e+02  7.1798e-02  9.0735e-02  2.4781e-02  9.4439e-03  8.0098e-01  5.1056e-01  3:16:38  433
    68  7.7065e+02  6.9490e-02  9.8703e-02  2.6150e-02  1.1023e-02  8.0940e-01  5.4247e-01  3:15:12  432
    69  7.8396e+02  6.8992e-02  8.9899e-02  2.5008e-02  8.1797e-03  8.4189e-01  5.0322e-01  3:15:38  431
    70  8.2399e+02  6.5117e-02  9.4780e-02  2.4496e-02  1.2933e-02  8.8616e-01  5.4594e-01  3:16:09  430
    71  8.0732e+02  7.1608e-02  9.1462e-02  2.5004e-02  1.0914e-02  8.0631e-01  4.8547e-01  3:14:47  429
    72  8.4964e+02  7.0042e-02  9.4209e-02  2.5403e-02  1.3357e-02  8.5781e-01  5.7529e-01  3:14:37  428
    73  8.6690e+02  7.2145e-02  8.9578e-02  2.4515e-02  1.4497e-02  9.0336e-01  5.4099e-01  3:15:38  427
    74  9.2205e+02  8.2750e-02  8.8287e-02  2.5389e-02  1.1309e-02  8.7321e-01  5.0039e-01  3:14:33  426
    75  8.8354e+02  7.0215e-02  8.9543e-02  2.5517e-02  1.2631e-02  9.2228e-01  5.6142e-01  3:15:09  425
    76  9.3789e+02  8.0291e-02  9.5037e-02  2.8271e-02  1.1810e-02  8.9416e-01  5.0452e-01  3:15:19  424
    77  9.5416e+02  6.7183e-02  8.8497e-02  2.5435e-02  1.1944e-02  8.5372e-01  4.9193e-01  3:14:40  423

  iter  continuity  x-velocity  y-velocity  z-velocity      energy           k       omega     time/iter
    78  9.6451e+02  6.9265e-02  9.1288e-02  2.6273e-02  1.4101e-02  9.0813e-01  5.5672e-01  3:14:59  422
    79  9.6720e+02  7.0104e-02  8.8415e-02  2.5905e-02  1.4021e-02  9.5231e-01  5.4205e-01  3:14:45  421
    80  1.0205e+03  7.5230e-02  9.2300e-02  2.7472e-02  1.2385e-02  9.4432e-01  5.3341e-01  3:15:53  420
    81  1.0418e+03  6.6026e-02  8.6012e-02  2.5753e-02  1.6376e-02  8.7153e-01  4.9556e-01  3:15:19  419
    82  1.0619e+03  7.6691e-02  9.0208e-02  2.6498e-02  1.3584e-02  9.1234e-01  5.4579e-01  3:13:12  418
    83  1.0510e+03  6.5574e-02  9.1667e-02  2.6822e-02  1.2628e-02  9.7599e-01  5.4046e-01  3:13:47  417
    84  1.1274e+03  7.6464e-02  9.0951e-02  2.8783e-02  1.3838e-02  9.3864e-01  5.2289e-01  3:15:19  416
    85  1.1670e+03  6.4219e-02  9.2221e-02  2.6058e-02  1.7239e-02  9.0037e-01  5.0378e-01  3:15:05  415
    86  1.1446e+03  7.3943e-02  8.6588e-02  2.6074e-02  1.3593e-02  9.7518e-01  5.5142e-01  3:14:45  414
    87  1.2382e+03  7.2903e-02  9.9239e-02  2.9926e-02  1.7806e-02  9.9333e-01  5.4748e-01  3:14:43  413
    88  1.2129e+03  6.9950e-02  8.2548e-02  2.6718e-02  1.3079e-02  9.1243e-01  4.9872e-01  3:16:29  412

  iter  continuity  x-velocity  y-velocity  z-velocity      energy           k       omega     time/iter
    89  1.2988e+03  6.7330e-02  9.4816e-02  2.7156e-02  1.7176e-02  1.0109e+00  5.6337e-01  3:15:51  411
    90  1.2376e+03  6.2188e-02  9.2370e-02  2.6643e-02  1.5138e-02  9.2768e-01  5.0557e-01  3:16:16  410
    91  1.3380e+03  7.3048e-02  9.4446e-02  2.8227e-02  1.5753e-02  1.0162e+00  5.5476e-01  3:14:19  409
    92  1.3384e+03  6.8103e-02  9.2356e-02  2.7375e-02  2.4419e-02  9.8802e-01  5.4485e-01  3:13:16  408
    93  1.4011e+03  7.4872e-02  8.3160e-02  2.5917e-02  1.7542e-02  9.7346e-01  5.3346e-01  3:12:46  407
    94  1.3801e+03  6.3925e-02  9.5971e-02  2.6066e-02  1.9759e-02  1.0187e+00  5.5541e-01  3:11:41  406
    95  1.4290e+03  7.5914e-02  9.8112e-02  3.0686e-02  1.9900e-02  1.0051e+00  5.3933e-01  3:11:00  405
    96  1.4639e+03  6.8484e-02  9.6514e-02  2.8986e-02  1.9985e-02  9.6078e-01  5.1025e-01  3:10:31  404
    97  1.5601e+03  6.1652e-02  9.1996e-02  2.5855e-02  2.0706e-02  1.0218e+00  5.4584e-01  3:11:09  403
    98  1.4995e+03  6.4292e-02  9.9802e-02  2.8336e-02  1.9736e-02  9.9036e-01  5.2704e-01  3:10:24  402
    99  1.5585e+03  6.6259e-02  1.0423e-01  3.0480e-02  2.0816e-02  9.8734e-01  5.2805e-01  3:10:01  401

  iter  continuity  x-velocity  y-velocity  z-velocity      energy           k       omega     time/iter
   100  1.5480e+03  6.5317e-02  9.7883e-02  2.9041e-02  1.7904e-02  9.6986e-01  5.2485e-01  3:08:36  400
   101  1.7257e+03  6.7153e-02  9.6378e-02  2.9135e-02  2.7558e-02  1.0495e+00  5.5595e-01  3:07:34  399
   102  1.6035e+03  6.9376e-02  8.8779e-02  2.8064e-02  2.0757e-02  9.5334e-01  5.1250e-01  3:06:41  398
   103  1.7027e+03  7.0574e-02  1.0367e-01  3.1591e-02  2.4401e-02  1.0894e+00  5.8237e-01  3:05:25  397
   104  1.7113e+03  6.2408e-02  9.3525e-02  2.8396e-02  2.0170e-02  9.6120e-01  5.2004e-01  3:04:24  396
   105  1.8628e+03  5.7759e-02  9.9191e-02  2.8553e-02  2.5433e-02  1.0307e+00  5.5190e-01  3:03:46  395
   106  1.7747e+03  6.8272e-02  9.6522e-02  2.9740e-02  2.1152e-02  1.0062e+00  5.3576e-01  3:03:24  394
   107  1.8657e+03  7.1819e-02  9.5462e-02  3.1829e-02  2.6116e-02  1.0336e+00  5.4597e-01  3:03:22  393
   108  1.9233e+03  7.0352e-02  9.6440e-02  2.8914e-02  2.1847e-02  9.5978e-01  5.1110e-01  3:04:29  392
   109  1.9844e+03  6.3728e-02  9.5487e-02  2.9697e-02  3.6673e-02  1.0495e+00  5.5794e-01  3:03:35  391
   110  1.9630e+03  7.8174e-02  8.7435e-02  2.9463e-02  2.6287e-02  1.0161e+00  5.3858e-01  3:04:07  390

  iter  continuity  x-velocity  y-velocity  z-velocity      energy           k       omega     time/iter
   111  2.0633e+03  6.3549e-02  1.0085e-01  2.9739e-02  3.1309e-02  1.0134e+00  5.4095e-01  3:02:56  389
   112  2.0986e+03  6.0769e-02  9.1960e-02  2.7213e-02  2.3247e-02  1.0325e+00  5.6446e-01  3:01:56  388
   113  2.1778e+03  6.3398e-02  9.3658e-02  3.0061e-02  2.8346e-02  1.0197e+00  5.3481e-01  2:59:12  387
   114  2.1457e+03  6.5837e-02  1.0115e-01  2.9578e-02  2.5917e-02  1.0155e+00  5.3780e-01  3:00:21  386
   115  2.1687e+03  7.4986e-02  9.2589e-02  3.1771e-02  2.4993e-02  1.0104e+00  5.3414e-01  2:59:36  385
   116  2.3070e+03  7.2312e-02  1.0349e-01  2.9763e-02  2.7993e-02  9.9800e-01  5.2602e-01  3:00:45  384
   117  2.2918e+03  6.2759e-02  9.8295e-02  2.8308e-02  2.7467e-02  1.0297e+00  5.4081e-01  3:00:02  383
   118  2.3078e+03  6.9984e-02  9.4863e-02  3.0602e-02  2.5902e-02  1.0128e+00  5.3579e-01  2:59:36  382
   119  2.3517e+03  6.1095e-02  1.0164e-01  3.0278e-02  2.5691e-02  1.0302e+00  5.5681e-01  2:58:42  381
   120  2.5281e+03  7.4835e-02  1.0180e-01  3.1227e-02  2.8283e-02  1.0315e+00  5.4957e-01  2:58:01  380
   121  2.4754e+03  6.1897e-02  9.2304e-02  2.8822e-02  2.8206e-02  1.0089e+00  5.2557e-01  2:57:00  379

  iter  continuity  x-velocity  y-velocity  z-velocity      energy           k       omega     time/iter
   122  2.5705e+03  6.5862e-02  1.0583e-01  3.0073e-02  2.5548e-02  1.0504e+00  5.5738e-01  2:56:52  378
   123  2.5771e+03  7.0422e-02  9.3898e-02  2.9441e-02  2.7542e-02  9.7973e-01  5.2517e-01  2:56:52  377
   124  2.6250e+03  7.0654e-02  9.6141e-02  3.0386e-02  2.9804e-02  1.0133e+00  5.3098e-01  2:55:18  376
   125  2.6233e+03  6.1372e-02  1.0692e-01  3.0634e-02  2.9507e-02  1.0692e+00  5.6150e-01  2:54:53  375
   126  2.7948e+03  6.8748e-02  1.0308e-01  3.1419e-02  3.0279e-02  1.0240e+00  5.4280e-01  2:53:55  374
   127  2.8484e+03  6.7867e-02  1.0169e-01  3.1702e-02  2.9785e-02  1.0432e+00  5.5748e-01  2:52:20  373
   128  2.9093e+03  6.5884e-02  1.0299e-01  3.1835e-02  2.6555e-02  1.0204e+00  5.3918e-01  2:51:49  372
   129  2.8322e+03  6.9845e-02  9.2395e-02  3.0130e-02  2.6338e-02  9.9498e-01  5.1981e-01  2:50:46  371
   130  3.0456e+03  7.0306e-02  1.0152e-01  3.3236e-02  2.5642e-02  1.0356e+00  5.4604e-01  2:50:01  370
   131  3.0715e+03  6.3141e-02  9.7607e-02  3.1083e-02  3.0958e-02  1.0176e+00  5.3936e-01  2:50:05  369
   132  3.0531e+03  7.0380e-02  9.4659e-02  3.0585e-02  2.7212e-02  1.0435e+00  5.4720e-01  2:49:53  368

  iter  continuity  x-velocity  y-velocity  z-velocity      energy           k       omega     time/iter
   133  3.1165e+03  6.8141e-02  1.0383e-01  3.4609e-02  2.8569e-02  1.0347e+00  5.5402e-01  2:51:24  367
   134  3.2179e+03  6.8043e-02  9.8723e-02  3.1348e-02  2.7227e-02  1.0174e+00  5.4174e-01  2:52:48  366
   135  3.3422e+03  6.8017e-02  1.0773e-01  3.4344e-02  3.0217e-02  1.0230e+00  5.3633e-01  2:50:32  365
   136  3.3735e+03  6.9326e-02  1.0395e-01  3.2658e-02  2.9788e-02  1.0898e+00  5.7039e-01  2:48:21  364
   137  3.3989e+03  7.1780e-02  9.4128e-02  3.1948e-02  2.7765e-02  9.9895e-01  5.2478e-01  2:47:09  363
   138  3.5917e+03  6.6941e-02  1.0259e-01  3.2711e-02  2.9728e-02  1.0474e+00  5.5511e-01  2:47:03  362
   139  3.7110e+03  6.1530e-02  1.0255e-01  3.2835e-02  3.4083e-02  1.0167e+00  5.3468e-01  2:46:45  361
   140  3.5707e+03  6.3251e-02  1.0188e-01  3.1258e-02  2.4464e-02  1.0120e+00  5.2399e-01  2:46:59  360
   141  3.6755e+03  7.2009e-02  1.0641e-01  3.6178e-02  2.9715e-02  1.0579e+00  5.5657e-01  2:46:22  359
   142  3.8078e+03  7.3789e-02  1.0027e-01  3.3567e-02  2.7848e-02  1.0013e+00  5.2012e-01  2:45:55  358
   143  3.9081e+03  6.9346e-02  1.0408e-01  3.4012e-02  3.1726e-02  1.0662e+00  5.5797e-01  2:45:36  357

  iter  continuity  x-velocity  y-velocity  z-velocity      energy           k       omega     time/iter
   144  4.0262e+03  7.1066e-02  1.0959e-01  3.3099e-02  3.3797e-02  1.0394e+00  5.5227e-01  2:46:26  356
   145  3.8939e+03  6.7646e-02  9.0775e-02  3.1854e-02  2.7919e-02  1.0291e+00  5.4866e-01  2:45:51  355
   146  4.0498e+03  6.9505e-02  1.0147e-01  3.2138e-02  2.8200e-02  1.0849e+00  5.7864e-01  2:43:34  354
   147  4.1615e+03  6.1007e-02  1.0208e-01  3.3512e-02  3.3643e-02  9.8605e-01  5.1952e-01  2:43:43  353
   148  4.2168e+03  7.5488e-02  9.3755e-02  3.1455e-02  2.5738e-02  1.0232e+00  5.3602e-01  2:43:32  352
   149  4.0327e+03  6.9304e-02  9.8311e-02  3.2412e-02  2.9344e-02  1.0502e+00  5.4859e-01  2:43:45  351
   150  4.2324e+03  7.2317e-02  9.8085e-02  2.9818e-02  3.1496e-02  1.0543e+00  5.4127e-01  2:41:45  350
   151  4.2857e+03  6.5204e-02  9.4994e-02  2.9363e-02  3.2985e-02  1.0191e+00  5.3317e-01  2:41:19  349
   152  4.4548e+03  6.8415e-02  1.0840e-01  3.1219e-02  3.3947e-02  1.0341e+00  5.4547e-01  2:42:07  348
   153  4.2928e+03  6.6018e-02  9.8042e-02  3.1141e-02  5.1192e-02  1.0389e+00  5.4487e-01  2:41:31  347
   154  4.6789e+03  7.0427e-02  1.1312e-01  3.3052e-02  3.1136e-02  1.0810e+00  5.7064e-01  2:40:16  346

  iter  continuity  x-velocity  y-velocity  z-velocity      energy           k       omega     time/iter
   155  4.6735e+03  6.6775e-02  9.4775e-02  3.1749e-02  3.3817e-02  9.9345e-01  5.1780e-01  2:40:56  345
   156  4.6570e+03  6.3359e-02  1.0782e-01  3.1327e-02  3.1478e-02  1.0458e+00  5.3952e-01  2:40:47  344
   157  4.5575e+03  7.1244e-02  1.0614e-01  3.3944e-02  3.1250e-02  1.0330e+00  5.3425e-01  2:40:34  343
   158  4.8636e+03  7.2164e-02  1.1391e-01  3.3472e-02  2.7573e-02  1.0340e+00  5.3207e-01  2:38:29  342
   159  4.8062e+03  6.6947e-02  9.6781e-02  3.1704e-02  2.6911e-02  1.0056e+00  5.2134e-01  2:38:12  341
   160  4.9388e+03  7.0384e-02  1.1048e-01  3.2528e-02  3.8739e-02  1.0973e+00  5.5519e-01  2:38:05  340
   161  4.6505e+03  6.5981e-02  1.0430e-01  3.3470e-02  3.6270e-02  1.0668e+00  5.5378e-01  2:34:45  339
   162  5.5296e+03  8.1032e-02  1.1439e-01  3.7626e-02  3.4180e-02  1.0702e+00  5.5844e-01  2:35:00  338
   163  5.0499e+03  6.9427e-02  9.7362e-02  3.2621e-02  2.7050e-02  1.0116e+00  5.2500e-01  2:32:58  337
   164  5.3113e+03  7.6768e-02  1.2115e-01  3.5554e-02  2.8485e-02  1.1200e+00  5.7792e-01  2:35:20  336
   165  4.9766e+03  7.1520e-02  9.9845e-02  3.4598e-02  3.5368e-02  1.0225e+00  5.3195e-01  2:32:42  335

  iter  continuity  x-velocity  y-velocity  z-velocity      energy           k       omega     time/iter
   166  5.6513e+03  7.2381e-02  1.1249e-01  3.5077e-02  2.8586e-02  1.0337e+00  5.3375e-01  2:32:20  334
   167  5.1689e+03  6.8353e-02  8.9238e-02  3.3069e-02  3.0104e-02  1.0287e+00  5.3292e-01  2:29:19  333
   168  5.6767e+03  8.0374e-02  1.1899e-01  3.6033e-02  3.3031e-02  1.0884e+00  5.6840e-01  2:30:00  332
   169  5.2135e+03  6.3424e-02  8.4209e-02  3.0727e-02  3.0154e-02  1.0149e+00  5.2334e-01  2:26:29  331
   170  6.0973e+03  7.1596e-02  1.0686e-01  3.4171e-02  3.1039e-02  1.0897e+00  5.6278e-01  2:26:13  330
   171  5.4944e+03  6.6399e-02  8.8958e-02  3.2979e-02  3.3196e-02  1.0063e+00  5.2559e-01  2:23:22  329
   172  6.1639e+03  6.6703e-02  1.0187e-01  3.1521e-02  3.4742e-02  1.0663e+00  5.5103e-01  2:26:11  328
   173  5.8310e+03  5.9892e-02  8.8736e-02  3.1096e-02  2.9601e-02  1.0218e+00  5.2990e-01  2:22:21  327
   174  6.6143e+03  6.3414e-02  9.7936e-02  3.1305e-02  2.8429e-02  1.0721e+00  5.6148e-01  2:23:56  326
   175  5.9935e+03  5.8203e-02  8.3510e-02  3.0800e-02  2.7236e-02  9.9931e-01  5.1705e-01  2:22:12  325
   176  6.3096e+03  6.3816e-02  9.8596e-02  3.0789e-02  2.6162e-02  1.0756e+00  5.5575e-01  2:23:24  324

  iter  continuity  x-velocity  y-velocity  z-velocity      energy           k       omega     time/iter
   177  6.1051e+03  5.5816e-02  8.2310e-02  3.0733e-02  2.4422e-02  1.0091e+00  5.2061e-01  2:19:17  323
   178  6.9269e+03  5.8938e-02  8.7802e-02  2.9622e-02  3.0475e-02  1.0702e+00  5.5139e-01  2:19:51  322
   179  6.5917e+03  5.6830e-02  7.8278e-02  2.9044e-02  2.9170e-02  1.0189e+00  5.3593e-01  2:18:41  321
   180  7.1020e+03  5.8214e-02  8.5145e-02  2.8149e-02  2.5924e-02  1.0919e+00  5.7015e-01  2:18:52  320
   181  6.7790e+03  5.2602e-02  8.2102e-02  3.0144e-02  2.7728e-02  1.0250e+00  5.3382e-01  2:16:55  319
   182  7.7749e+03  6.3521e-02  8.5544e-02  3.1575e-02  2.9397e-02  1.0468e+00  5.4218e-01  2:19:19  318
   183  7.5147e+03  5.6008e-02  7.7310e-02  2.8815e-02  2.6366e-02  1.0205e+00  5.3358e-01  2:18:55  317
   184  8.3157e+03  6.1714e-02  9.3468e-02  3.1657e-02  3.2491e-02  1.0321e+00  5.3839e-01  2:20:23  316
   185  7.5541e+03  5.2757e-02  8.1272e-02  3.0187e-02  2.4329e-02  1.0305e+00  5.3432e-01  2:19:10  315
   186  9.3255e+03  6.5542e-02  9.7467e-02  3.6445e-02  3.8489e-02  1.0751e+00  5.5935e-01  2:21:36  314
   187  8.9871e+03  6.1280e-02  8.3045e-02  3.3846e-02  3.2541e-02  1.0089e+00  5.2356e-01  2:19:17  313

  iter  continuity  x-velocity  y-velocity  z-velocity      energy           k       omega     time/iter
   188  1.0226e+04  6.2426e-02  9.2398e-02  3.3117e-02  3.5509e-02  1.0479e+00  5.4384e-01  2:20:14  312
   189  9.3455e+03  5.1234e-02  7.5813e-02  3.1223e-02  2.8999e-02  1.0500e+00  5.5328e-01  2:18:20  311
   190  1.0997e+04  5.9788e-02  7.9902e-02  3.6780e-02  3.5296e-02  1.0193e+00  5.2651e-01  2:20:15  310
   191  1.0666e+04  4.8443e-02  6.8278e-02  3.1047e-02  2.8591e-02  1.0056e+00  5.1994e-01  2:18:20  309
   192  1.1754e+04  4.7804e-02  6.6017e-02  2.9445e-02  2.9206e-02  1.0644e+00  5.5517e-01  2:18:37  308
   193  1.1174e+04  3.5401e-02  5.9250e-02  2.7406e-02  2.6318e-02  1.0006e+00  5.1425e-01  2:17:19  307
   194  1.2670e+04  4.0449e-02  5.9777e-02  2.7866e-02  2.9060e-02  1.0135e+00  5.2667e-01  2:15:13  306
   195  1.3133e+04  3.8766e-02  5.2830e-02  2.6968e-02  2.7772e-02  9.9755e-01  5.2035e-01  2:16:30  305
   196  1.4687e+04  3.9730e-02  5.6351e-02  3.0621e-02  3.0624e-02  9.8809e-01  5.2274e-01  2:15:55  304
   197  1.6330e+04  3.7009e-02  5.9864e-02  3.3173e-02  3.1178e-02  9.8286e-01  5.3609e-01  2:15:21  303
   198  1.8493e+04  3.6824e-02  5.2665e-02  3.2277e-02  2.7980e-02  9.3703e-01  4.9778e-01  2:15:35  302

  iter  continuity  x-velocity  y-velocity  z-velocity      energy           k       omega     time/iter
   199  2.1009e+04  3.3067e-02  4.3259e-02  3.2533e-02  2.5948e-02  8.7600e-01  4.7865e-01  2:13:39  301
   200  2.4727e+04  2.8577e-02  3.7924e-02  3.0223e-02  2.1252e-02  8.2316e-01  4.4694e-01  2:11:54  300
   201  2.9293e+04  2.2249e-02  3.0366e-02  2.6732e-02  1.9181e-02  7.6453e-01  4.0228e-01  2:10:29  299
   202  3.7067e+04  1.7861e-02  2.6330e-02  2.4991e-02  1.9989e-02  6.9289e-01  3.8486e-01  2:09:12  298
   203  4.8835e+04  1.6501e-02  2.5320e-02  2.4546e-02  1.9470e-02  7.0212e-01  4.0074e-01  2:08:22  297
   204  6.7818e+04  1.6088e-02  2.5694e-02  2.6692e-02  1.9993e-02  7.0924e-01  4.0549e-01  2:09:43  296
   205  9.7475e+04  1.7328e-02  2.8250e-02  3.4331e-02  1.9891e-02  7.0191e-01  4.0356e-01  2:11:19  295
   206  1.4264e+05  1.9005e-02  2.9489e-02  4.1157e-02  1.8616e-02  7.0068e-01  4.0318e-01  2:10:25  294
   207  2.0986e+05  1.8583e-02  2.8910e-02  4.1080e-02  1.6644e-02  7.0755e-01  4.0732e-01  2:07:34  293
   208  3.0075e+05  1.5036e-02  2.2731e-02  3.3038e-02  1.4850e-02  7.0008e-01  4.1226e-01  2:05:06  292
   209  3.9975e+05  1.4779e-02  2.2607e-02  3.1834e-02  1.2976e-02  7.0389e-01  3.3407e-01  2:03:28  291

  iter  continuity  x-velocity  y-velocity  z-velocity      energy           k       omega     time/iter
   210  5.5399e+05  1.2555e-02  1.6734e-02  2.9306e-02  1.2992e-02  5.3810e-01  3.1863e-01  2:03:20  290
   211  7.8685e+05  1.0766e-02  1.3141e-02  2.7443e-02  1.3949e-02  5.0616e-01  3.4471e-01  2:01:40  289
   212  1.0464e+06  9.8017e-03  1.2803e-02  2.4723e-02  1.2465e-02  6.1406e-01  3.7898e-01  2:02:38  288

 turbulent viscosity limited to viscosity ratio of 1.000000e+05 in 20 cells 
   213  1.3560e+06  9.6978e-03  1.3781e-02  2.3135e-02  1.3682e-02  6.3972e-01  3.6330e-01  2:01:00  287

 turbulent viscosity limited to viscosity ratio of 1.000000e+05 in 1026 cells 
   214  1.7335e+06  1.0364e-02  1.5114e-02  2.4253e-02  1.3336e-02  8.7197e-01  4.4742e-01  2:02:15  286

 turbulent viscosity limited to viscosity ratio of 1.000000e+05 in 4318 cells 
   215  2.2130e+06  1.1880e-02  1.5494e-02  2.8178e-02  1.4224e-02  7.5554e-01  4.1387e-01  2:01:41  285

 turbulent viscosity limited to viscosity ratio of 1.000000e+05 in 8601 cells 
   216  2.8452e+06  1.4193e-02  1.7019e-02  3.4033e-02  1.6040e-02  7.0794e-01  3.9059e-01  2:03:02  284

 turbulent viscosity limited to viscosity ratio of 1.000000e+05 in 12773 cells 
   217  3.6152e+06  1.6286e-02  1.8043e-02  3.9707e-02  1.6043e-02  6.8732e-01  3.8955e-01  2:03:33  283

 turbulent viscosity limited to viscosity ratio of 1.000000e+05 in 13745 cells 
   218  4.3552e+06  1.7148e-02  1.9622e-02  4.0683e-02  1.6476e-02  7.8029e-01  3.9816e-01  2:04:22  282

 turbulent viscosity limited to viscosity ratio of 1.000000e+05 in 17197 cells 
   219  5.1482e+06  1.6845e-02  1.9793e-02  3.8076e-02  1.6697e-02  7.6861e-01  3.9389e-01  2:05:53  281

 turbulent viscosity limited to viscosity ratio of 1.000000e+05 in 37396 cells 
   220  5.9589e+06  1.6076e-02  1.8172e-02  3.4475e-02  1.6674e-02  8.2344e-01  4.1623e-01  2:04:09  280

 turbulent viscosity limited to viscosity ratio of 1.000000e+05 in 53118 cells 

  iter  continuity  x-velocity  y-velocity  z-velocity      energy           k       omega     time/iter
   221  6.9713e+06  1.4421e-02  1.5771e-02  3.0128e-02  1.5807e-02  8.3626e-01  4.0938e-01  2:04:04  279

 turbulent viscosity limited to viscosity ratio of 1.000000e+05 in 56471 cells 
   222  8.1910e+06  1.3024e-02  1.4371e-02  2.6076e-02  1.5694e-02  8.1480e-01  4.1149e-01  2:02:54  278

 turbulent viscosity limited to viscosity ratio of 1.000000e+05 in 62667 cells 
   223  9.8654e+06  1.1702e-02  1.2969e-02  2.3540e-02  1.4560e-02  8.5086e-01  4.1136e-01  2:02:58  277

 turbulent viscosity limited to viscosity ratio of 1.000000e+05 in 71848 cells 
   224  1.2206e+07  1.0604e-02  1.2517e-02  2.1356e-02  1.4594e-02  8.4366e-01  4.3351e-01  2:02:43  276

 turbulent viscosity limited to viscosity ratio of 1.000000e+05 in 81775 cells 
   225  1.5412e+07  1.0612e-02  1.2578e-02  2.0958e-02  1.5588e-02  9.7925e-01  4.9296e-01  2:02:32  275

 turbulent viscosity limited to viscosity ratio of 1.000000e+05 in 93629 cells 
   226  2.0448e+07  1.0915e-02  1.4055e-02  2.3113e-02  1.7506e-02  8.9932e-01  4.7163e-01  2:02:29  274

 turbulent viscosity limited to viscosity ratio of 1.000000e+05 in 110101 cells 
   227  2.8338e+07  1.1286e-02  1.6723e-02  2.8076e-02  1.9426e-02  8.0517e-01  4.4598e-01  2:03:26  273

 turbulent viscosity limited to viscosity ratio of 1.000000e+05 in 132435 cells 
   228  3.9503e+07  1.2752e-02  1.9604e-02  3.4375e-02  2.0290e-02  8.2307e-01  4.2621e-01  2:02:37  272

 turbulent viscosity limited to viscosity ratio of 1.000000e+05 in 160840 cells 
   229  4.9565e+07  1.2829e-02  2.0334e-02  3.6006e-02  2.0881e-02  8.2619e-01  4.1180e-01  2:01:43  271

 turbulent viscosity limited to viscosity ratio of 1.000000e+05 in 182851 cells 
   230  6.5567e+07  1.3379e-02  2.0777e-02  3.4274e-02  2.1099e-02  8.4185e-01  3.9981e-01  2:01:09  270

 turbulent viscosity limited to viscosity ratio of 1.000000e+05 in 194529 cells 
   231  7.6627e+07  1.2264e-02  1.7556e-02  2.8610e-02  2.0752e-02  8.8129e-01  4.1941e-01  2:02:31  269

 turbulent viscosity limited to viscosity ratio of 1.000000e+05 in 194276 cells 

  iter  continuity  x-velocity  y-velocity  z-velocity      energy           k       omega     time/iter
   232  8.3547e+07  1.1504e-02  1.5856e-02  2.4078e-02  2.2760e-02  9.4814e-01  4.5593e-01  2:01:51  268

 turbulent viscosity limited to viscosity ratio of 1.000000e+05 in 187506 cells 
   233  9.3212e+07  1.1684e-02  1.4957e-02  2.2287e-02  2.3895e-02  9.5999e-01  4.6544e-01  2:00:59  267

 turbulent viscosity limited to viscosity ratio of 1.000000e+05 in 179068 cells 
   234  1.0764e+08  1.1965e-02  1.5202e-02  2.3082e-02  2.3858e-02  9.4970e-01  4.6755e-01  2:00:42  266

 turbulent viscosity limited to viscosity ratio of 1.000000e+05 in 173032 cells 
   235  1.3082e+08  1.2570e-02  1.5474e-02  2.4959e-02  2.6433e-02  9.1394e-01  4.7215e-01  1:58:35  265

 turbulent viscosity limited to viscosity ratio of 1.000000e+05 in 172678 cells 
   236  1.6716e+08  1.3728e-02  1.8115e-02  2.9011e-02  2.9478e-02  9.7811e-01  4.9160e-01  1:58:21  264

 turbulent viscosity limited to viscosity ratio of 1.000000e+05 in 174274 cells 
   237  2.2131e+08  1.5257e-02  2.1218e-02  3.2238e-02  3.1059e-02  8.8158e-01  4.7723e-01  1:58:23  263

 turbulent viscosity limited to viscosity ratio of 1.000000e+05 in 176152 cells 
   238  2.9770e+08  1.6972e-02  2.5756e-02  3.6814e-02  3.2949e-02  7.3152e-01  4.3987e-01  1:59:04  262

 absolute pressure limited to 5.000000e+10 in 3 cells on zone 900 

 turbulent viscosity limited to viscosity ratio of 1.000000e+05 in 176785 cells 
   239  3.5233e+08  1.7789e-02  2.7737e-02  3.9601e-02  3.4653e-02  8.1105e-01  4.4244e-01  1:58:36  261

 absolute pressure limited to 5.000000e+10 in 3 cells on zone 900 

 turbulent viscosity limited to viscosity ratio of 1.000000e+05 in 177249 cells 
   240  4.2551e+08  1.8047e-02  2.8710e-02  3.8092e-02  3.4606e-02  8.9859e-01  4.4330e-01  1:59:11  260

 absolute pressure limited to 5.000000e+10 in 14 cells on zone 900 

 turbulent viscosity limited to viscosity ratio of 1.000000e+05 in 176569 cells 
   241  5.0983e+08  1.6983e-02  2.5437e-02  3.6020e-02  3.3498e-02  9.6070e-01  4.6767e-01  1:57:56  259

 absolute pressure limited to 5.000000e+10 in 10 cells on zone 900 

 turbulent viscosity limited to viscosity ratio of 1.000000e+05 in 189473 cells 
   242  5.5046e+08  1.5875e-02  2.4360e-02  3.3178e-02  3.5508e-02  9.2268e-01  4.6413e-01  1:57:17  258

 absolute pressure limited to 5.000000e+10 in 10 cells on zone 900 

 turbulent viscosity limited to viscosity ratio of 1.000000e+05 in 200770 cells 

  iter  continuity  x-velocity  y-velocity  z-velocity      energy           k       omega     time/iter
   243  6.2848e+08  1.6527e-02  2.3167e-02  3.1866e-02  3.6094e-02  9.3121e-01  4.5060e-01  1:56:18  257

 absolute pressure limited to 5.000000e+10 in 29 cells on zone 900 

 turbulent viscosity limited to viscosity ratio of 1.000000e+05 in 205156 cells 
   244  7.3153e+08  1.5773e-02  2.0397e-02  3.0452e-02  3.5343e-02  9.5327e-01  4.5629e-01  1:54:22  256

 absolute pressure limited to 5.000000e+10 in 31 cells on zone 900 

 turbulent viscosity limited to viscosity ratio of 1.000000e+05 in 206769 cells 
   245  8.4122e+08  1.5205e-02  2.0520e-02  2.9360e-02  3.4937e-02  9.6419e-01  4.6545e-01  1:53:04  255

 absolute pressure limited to 5.000000e+10 in 94 cells on zone 900 

 turbulent viscosity limited to viscosity ratio of 1.000000e+05 in 206568 cells 
   246  1.0293e+09  1.5844e-02  2.1262e-02  3.0115e-02  3.7959e-02  9.7558e-01  4.7174e-01  1:51:42  254

 absolute pressure limited to 5.000000e+10 in 156 cells on zone 900 

 turbulent viscosity limited to viscosity ratio of 1.000000e+05 in 208165 cells 
   247  1.1961e+09  1.7209e-02  2.3166e-02  3.3213e-02  3.8430e-02  9.6649e-01  4.6289e-01  1:50:37  253

 absolute pressure limited to 5.000000e+10 in 228 cells on zone 900 

 turbulent viscosity limited to viscosity ratio of 1.000000e+05 in 210860 cells 
   248  1.4123e+09  1.9320e-02  2.4934e-02  3.6218e-02  3.7725e-02  9.7276e-01  4.6567e-01  1:48:44  252

 absolute pressure limited to 5.000000e+10 in 406 cells on zone 900 

 turbulent viscosity limited to viscosity ratio of 1.000000e+05 in 217958 cells 
   249  1.6310e+09  2.0657e-02  2.7908e-02  4.0520e-02  3.8129e-02  9.4392e-01  4.5593e-01  1:47:57  251

 absolute pressure limited to 5.000000e+10 in 668 cells on zone 900 

 turbulent viscosity limited to viscosity ratio of 1.000000e+05 in 232885 cells 
   250  1.8327e+09  2.1162e-02  3.1673e-02  4.6048e-02  3.7413e-02  9.5143e-01  4.5523e-01  1:47:26  250

 absolute pressure limited to 5.000000e+10 in 1328 cells on zone 900 

 turbulent viscosity limited to viscosity ratio of 1.000000e+05 in 234184 cells 
   251  1.8922e+09  2.0086e-02  3.0278e-02  4.7076e-02  3.6884e-02  9.8172e-01  4.7378e-01  1:47:25  249

 absolute pressure limited to 5.000000e+10 in 9398 cells on zone 900 

 turbulent viscosity limited to viscosity ratio of 1.000000e+05 in 231604 cells 
   252  1.7983e+09  1.8551e-02  2.7995e-02  4.2876e-02  3.7034e-02  9.9597e-01  4.9320e-01  1:46:37  248

 absolute pressure limited to 5.000000e+10 in 18408 cells on zone 900 

 turbulent viscosity limited to viscosity ratio of 1.000000e+05 in 226983 cells 
   253  1.8525e+09  1.9218e-02  2.6147e-02  3.8171e-02  3.7490e-02  9.9708e-01  4.9604e-01  1:46:25  247

 absolute pressure limited to 5.000000e+10 in 25459 cells on zone 900 

 turbulent viscosity limited to viscosity ratio of 1.000000e+05 in 220917 cells 

  iter  continuity  x-velocity  y-velocity  z-velocity      energy           k       omega     time/iter
   254  2.0055e+09  1.9255e-02  2.7941e-02  3.5849e-02  3.7093e-02  9.9904e-01  4.9815e-01  1:46:27  246

 absolute pressure limited to 5.000000e+10 in 29792 cells on zone 900 

 turbulent viscosity limited to viscosity ratio of 1.000000e+05 in 213881 cells 
   255  2.3795e+09  1.8215e-02  3.1160e-02  3.3618e-02  3.6480e-02  9.9828e-01  4.9779e-01  1:45:35  245

 absolute pressure limited to 5.000000e+10 in 34888 cells on zone 900 

 turbulent viscosity limited to viscosity ratio of 1.000000e+05 in 208861 cells 
   256  2.7869e+09  1.9145e-02  3.5346e-02  3.1008e-02  3.7708e-02  9.9655e-01  4.9625e-01  1:46:07  244

 absolute pressure limited to 5.000000e+10 in 49018 cells on zone 900 

 turbulent viscosity limited to viscosity ratio of 1.000000e+05 in 208309 cells 
   257  3.1239e+09  2.1130e-02  3.8857e-02  3.0118e-02  3.7746e-02  9.9554e-01  4.9515e-01  1:45:49  243

 absolute pressure limited to 5.000000e+10 in 158462 cells on zone 900 

 turbulent viscosity limited to viscosity ratio of 1.000000e+05 in 211909 cells 
   258  3.0571e+09  2.2610e-02  4.4694e-02  2.9358e-02  4.1085e-02  9.9276e-01  4.9425e-01  1:45:57  242

 absolute pressure limited to 5.000000e+10 in 203513 cells on zone 900 

 turbulent viscosity limited to viscosity ratio of 1.000000e+05 in 220101 cells 
   259  2.7831e+09  2.5849e-02  5.2500e-02  3.3408e-02  4.4126e-02  9.9642e-01  4.9626e-01  1:45:51  241

 absolute pressure limited to 5.000000e+10 in 206269 cells on zone 900 

 turbulent viscosity limited to viscosity ratio of 1.000000e+05 in 226207 cells 
   260  2.9844e+09  2.6722e-02  4.5843e-02  3.7990e-02  4.4233e-02  9.9931e-01  4.9754e-01  1:46:42  240

 absolute pressure limited to 5.000000e+10 in 261736 cells on zone 900 

 turbulent viscosity limited to viscosity ratio of 1.000000e+05 in 223009 cells 
   261  3.0796e+09  2.6747e-02  4.3567e-02  4.3327e-02  5.8935e-02  1.0005e+00  4.9976e-01  1:46:29  239

 absolute pressure limited to 5.000000e+10 in 262641 cells on zone 900 

 turbulent viscosity limited to viscosity ratio of 1.000000e+05 in 212874 cells 
   262  3.5603e+09  2.4783e-02  4.9252e-02  4.0678e-02  5.0666e-02  1.0002e+00  4.9985e-01  1:47:17  238

 absolute pressure limited to 5.000000e+10 in 262847 cells on zone 900 

 turbulent viscosity limited to viscosity ratio of 1.000000e+05 in 209715 cells 
   263  3.4318e+09  2.1764e-02  4.9608e-02  5.0561e-02  4.7717e-02  1.0011e+00  4.9958e-01  1:48:38  237

 absolute pressure limited to 5.000000e+10 in 262897 cells on zone 900 

 turbulent viscosity limited to viscosity ratio of 1.000000e+05 in 203745 cells 
   264  3.2991e+09  2.1920e-02  4.9368e-02  5.7998e-02  4.5338e-02  1.0007e+00  5.0004e-01  1:48:36  236

 absolute pressure limited to 5.000000e+10 in 262917 cells on zone 900 

 turbulent viscosity limited to viscosity ratio of 1.000000e+05 in 199835 cells 

  iter  continuity  x-velocity  y-velocity  z-velocity      energy           k       omega     time/iter
   265  3.5000e+09  2.5995e-02  5.5684e-02  6.2484e-02  4.6679e-02  1.0027e+00  4.9961e-01  1:49:05  235

 absolute pressure limited to 5.000000e+10 in 262881 cells on zone 900 

 turbulent viscosity limited to viscosity ratio of 1.000000e+05 in 195500 cells 
   266  4.0023e+09  2.5650e-02  5.9013e-02  5.9808e-02  4.8234e-02  1.0075e+00  5.0029e-01  1:48:53  234

 absolute pressure limited to 5.000000e+10 in 262794 cells on zone 900 

 turbulent viscosity limited to viscosity ratio of 1.000000e+05 in 195491 cells 
   267  4.0717e+09  2.3486e-02  5.9787e-02  6.2683e-02  4.8562e-02  1.0020e+00  5.0033e-01  1:48:32  233

 absolute pressure limited to 5.000000e+10 in 262861 cells on zone 900 

 turbulent viscosity limited to viscosity ratio of 1.000000e+05 in 200197 cells 
   268  4.2307e+09  2.5729e-02  6.4824e-02  6.1979e-02  4.5378e-02  1.0033e+00  4.9976e-01  1:50:43  232

 absolute pressure limited to 5.000000e+10 in 262865 cells on zone 900 

 turbulent viscosity limited to viscosity ratio of 1.000000e+05 in 199385 cells 
   269  4.7405e+09  2.6511e-02  6.6269e-02  5.7452e-02  4.8464e-02  1.0038e+00  5.0178e-01  1:51:04  231

 absolute pressure limited to 5.000000e+10 in 262860 cells on zone 900 

 turbulent viscosity limited to viscosity ratio of 1.000000e+05 in 197544 cells 
   270  4.9311e+09  2.4527e-02  6.4722e-02  5.6569e-02  5.2322e-02  1.0015e+00  5.0068e-01  1:51:11  230

 absolute pressure limited to 5.000000e+10 in 262890 cells on zone 900 

 turbulent viscosity limited to viscosity ratio of 1.000000e+05 in 195442 cells 
   271  5.0247e+09  2.4145e-02  6.6094e-02  5.4346e-02  4.8530e-02  1.0004e+00  5.0017e-01  1:50:57  229

 absolute pressure limited to 5.000000e+10 in 262893 cells on zone 900 

 turbulent viscosity limited to viscosity ratio of 1.000000e+05 in 196345 cells 
   272  5.5557e+09  2.3798e-02  6.4413e-02  5.3756e-02  4.6166e-02  1.0003e+00  4.9996e-01  1:50:55  228

 absolute pressure limited to 5.000000e+10 in 262843 cells on zone 900 

 turbulent viscosity limited to viscosity ratio of 1.000000e+05 in 195774 cells 
   273  5.6355e+09  2.2362e-02  6.0456e-02  5.3650e-02  4.9411e-02  1.0008e+00  5.0000e-01  1:50:11  227

 absolute pressure limited to 5.000000e+10 in 262874 cells on zone 900 

 turbulent viscosity limited to viscosity ratio of 1.000000e+05 in 196762 cells 
   274  5.8699e+09  2.2881e-02  6.1856e-02  5.4912e-02  5.2120e-02  1.0013e+00  5.0027e-01  1:51:12  226

 absolute pressure limited to 5.000000e+10 in 262851 cells on zone 900 

 turbulent viscosity limited to viscosity ratio of 1.000000e+05 in 198963 cells 
   275  6.4534e+09  2.2641e-02  6.2902e-02  5.4339e-02  4.8859e-02  1.0006e+00  4.9955e-01  1:51:51  225

 absolute pressure limited to 5.000000e+10 in 262839 cells on zone 900 

 turbulent viscosity limited to viscosity ratio of 1.000000e+05 in 201656 cells 

  iter  continuity  x-velocity  y-velocity  z-velocity      energy           k       omega     time/iter
   276  6.6296e+09  2.1462e-02  6.0707e-02  5.2929e-02  4.8827e-02  1.0004e+00  4.9957e-01  1:52:00  224

 absolute pressure limited to 5.000000e+10 in 262895 cells on zone 900 

 turbulent viscosity limited to viscosity ratio of 1.000000e+05 in 204636 cells 
   277  7.1748e+09  2.2097e-02  6.4599e-02  4.9052e-02  5.1640e-02  9.9999e-01  4.9990e-01  1:52:14  223

 absolute pressure limited to 5.000000e+10 in 262840 cells on zone 900 

 turbulent viscosity limited to viscosity ratio of 1.000000e+05 in 208305 cells 
   278  7.6700e+09  2.1297e-02  6.3291e-02  4.9631e-02  5.2618e-02  9.9960e-01  4.9955e-01  1:51:55  222

 absolute pressure limited to 5.000000e+10 in 262916 cells on zone 900 

 turbulent viscosity limited to viscosity ratio of 1.000000e+05 in 218312 cells 
   279  8.5132e+09  2.0289e-02  6.4703e-02  4.4806e-02  6.8856e-02  9.9860e-01  4.9869e-01  1:49:51  221

 absolute pressure limited to 5.000000e+10 in 263045 cells on zone 900 

 turbulent viscosity limited to viscosity ratio of 1.000000e+05 in 224917 cells 
   280  1.1239e+10  1.9418e-02  5.9603e-02  3.6666e-02  5.6645e-02  9.9970e-01  4.9837e-01  1:48:29  220

 absolute pressure limited to 5.000000e+10 in 263105 cells on zone 900 

 turbulent viscosity limited to viscosity ratio of 1.000000e+05 in 227601 cells 
   281  1.4128e+10  1.6839e-02  5.5016e-02  4.3587e-02  4.8884e-02  9.9789e-01  4.9803e-01  1:47:00  219

 absolute pressure limited to 5.000000e+10 in 263147 cells on zone 900 

 turbulent viscosity limited to viscosity ratio of 1.000000e+05 in 233034 cells 
   282  1.6784e+10  1.6073e-02  5.5503e-02  4.7847e-02  3.9125e-02  9.9043e-01  4.9449e-01  1:43:09  218

 absolute pressure limited to 5.000000e+10 in 263146 cells on zone 900 

 turbulent viscosity limited to viscosity ratio of 1.000000e+05 in 242886 cells 
   283  1.8056e+10  1.5616e-02  5.4280e-02  4.8527e-02  3.2019e-02  9.9393e-01  4.9514e-01  1:41:29  217

 absolute pressure limited to 5.000000e+10 in 263115 cells on zone 900 

 turbulent viscosity limited to viscosity ratio of 1.000000e+05 in 246288 cells 
   284  1.7702e+10  1.4535e-02  4.9866e-02  4.6775e-02  2.7155e-02  9.9644e-01  4.9704e-01  1:39:39  216

 absolute pressure limited to 5.000000e+10 in 263133 cells on zone 900 

 turbulent viscosity limited to viscosity ratio of 1.000000e+05 in 249008 cells 
   285  1.7010e+10  1.3933e-02  4.6549e-02  4.7217e-02  2.4444e-02  9.8597e-01  4.9407e-01  1:38:40  215

 absolute pressure limited to 5.000000e+10 in 263105 cells on zone 900 

 turbulent viscosity limited to viscosity ratio of 1.000000e+05 in 250213 cells 
   286  1.6663e+10  1.3784e-02  4.5449e-02  5.0034e-02  2.4175e-02  9.9645e-01  4.9650e-01  1:37:47  214

 absolute pressure limited to 5.000000e+10 in 263104 cells on zone 900 

 turbulent viscosity limited to viscosity ratio of 1.000000e+05 in 251567 cells 

  iter  continuity  x-velocity  y-velocity  z-velocity      energy           k       omega     time/iter
   287  1.7052e+10  1.2936e-02  4.4670e-02  5.3921e-02  2.3531e-02  9.9596e-01  4.9688e-01  1:35:54  213

 absolute pressure limited to 5.000000e+10 in 263110 cells on zone 900 

 turbulent viscosity limited to viscosity ratio of 1.000000e+05 in 252577 cells 
   288  1.7655e+10  1.2970e-02  4.6590e-02  5.5092e-02  2.2658e-02  9.8568e-01  4.9315e-01  1:36:25  212

 absolute pressure limited to 5.000000e+10 in 263125 cells on zone 900 

 turbulent viscosity limited to viscosity ratio of 1.000000e+05 in 253222 cells 
   289  1.7888e+10  1.3147e-02  4.8517e-02  5.3677e-02  2.2660e-02  9.8064e-01  4.8942e-01  1:36:56  211

 absolute pressure limited to 5.000000e+10 in 263136 cells on zone 900 

 turbulent viscosity limited to viscosity ratio of 1.000000e+05 in 254014 cells 
   290  1.8166e+10  1.2975e-02  4.7825e-02  5.2152e-02  2.1498e-02  9.9544e-01  4.9615e-01  1:35:56  210

 absolute pressure limited to 5.000000e+10 in 263080 cells on zone 900 

 turbulent viscosity limited to viscosity ratio of 1.000000e+05 in 254499 cells 
   291  1.7839e+10  1.3153e-02  4.8082e-02  5.0062e-02  2.2027e-02  9.9554e-01  4.9608e-01  1:34:08  209

 absolute pressure limited to 5.000000e+10 in 263106 cells on zone 900 

 turbulent viscosity limited to viscosity ratio of 1.000000e+05 in 254676 cells 
   292  1.7450e+10  1.3046e-02  4.8062e-02  4.8509e-02  2.2788e-02  9.9217e-01  4.9410e-01  1:34:17  208

 absolute pressure limited to 5.000000e+10 in 263089 cells on zone 900 

 turbulent viscosity limited to viscosity ratio of 1.000000e+05 in 254632 cells 
   293  1.7752e+10  1.3245e-02  4.7313e-02  4.8503e-02  2.2835e-02  9.8307e-01  4.9021e-01  1:33:40  207

 absolute pressure limited to 5.000000e+10 in 263139 cells on zone 900 

 turbulent viscosity limited to viscosity ratio of 1.000000e+05 in 254881 cells 
   294  1.8338e+10  1.3018e-02  4.8658e-02  4.9610e-02  2.2804e-02  9.9530e-01  4.9507e-01  1:32:04  206

 absolute pressure limited to 5.000000e+10 in 263108 cells on zone 900 

 turbulent viscosity limited to viscosity ratio of 1.000000e+05 in 254818 cells 
   295  1.8926e+10  1.3305e-02  5.0383e-02  4.7883e-02  2.2118e-02  9.9828e-01  4.9796e-01  1:30:41  205

 absolute pressure limited to 5.000000e+10 in 263085 cells on zone 900 

 turbulent viscosity limited to viscosity ratio of 1.000000e+05 in 254831 cells 
   296  1.8132e+10  1.2698e-02  5.0084e-02  4.6865e-02  2.2118e-02  9.9913e-01  4.9927e-01  1:29:22  204

 absolute pressure limited to 5.000000e+10 in 263119 cells on zone 900 

 turbulent viscosity limited to viscosity ratio of 1.000000e+05 in 255031 cells 
   297  1.8040e+10  1.3251e-02  5.0140e-02  4.6177e-02  2.3770e-02  9.9821e-01  4.9891e-01  1:30:02  203

 absolute pressure limited to 5.000000e+10 in 263097 cells on zone 900 

 turbulent viscosity limited to viscosity ratio of 1.000000e+05 in 254868 cells 

  iter  continuity  x-velocity  y-velocity  z-velocity      energy           k       omega     time/iter
   298  1.8324e+10  1.2959e-02  4.8102e-02  4.4829e-02  2.3694e-02  9.9322e-01  4.9781e-01  1:31:02  202

 absolute pressure limited to 5.000000e+10 in 263090 cells on zone 900 

 turbulent viscosity limited to viscosity ratio of 1.000000e+05 in 254849 cells 
   299  1.7146e+10  1.3315e-02  5.0509e-02  4.4601e-02  2.4370e-02  9.9696e-01  4.9772e-01  1:31:41  201

 absolute pressure limited to 5.000000e+10 in 263077 cells on zone 900 

 turbulent viscosity limited to viscosity ratio of 1.000000e+05 in 254875 cells 
   300  1.6860e+10  1.2537e-02  4.6972e-02  4.5429e-02  2.4508e-02  9.9394e-01  4.9615e-01  1:31:57  200

 absolute pressure limited to 5.000000e+10 in 263084 cells on zone 900 

 turbulent viscosity limited to viscosity ratio of 1.000000e+05 in 254837 cells 
   301  1.6916e+10  1.3135e-02  4.8547e-02  4.4594e-02  2.5392e-02  9.9584e-01  4.9669e-01  1:32:21  199

 absolute pressure limited to 5.000000e+10 in 263078 cells on zone 900 

 turbulent viscosity limited to viscosity ratio of 1.000000e+05 in 254775 cells 
   302  1.6117e+10  1.3018e-02  4.9970e-02  4.3939e-02  2.4448e-02  9.9801e-01  4.9783e-01  1:31:20  198

 absolute pressure limited to 5.000000e+10 in 263084 cells on zone 900 

 turbulent viscosity limited to viscosity ratio of 1.000000e+05 in 254686 cells 
   303  1.6006e+10  1.3078e-02  4.8671e-02  4.2313e-02  2.2766e-02  9.9700e-01  4.9718e-01  1:30:30  197

 absolute pressure limited to 5.000000e+10 in 263067 cells on zone 900 

 turbulent viscosity limited to viscosity ratio of 1.000000e+05 in 254431 cells 
   304  1.4946e+10  1.2975e-02  4.8276e-02  3.9796e-02  2.2761e-02  9.9823e-01  4.9834e-01  1:29:57  196

 absolute pressure limited to 5.000000e+10 in 263070 cells on zone 900 

 turbulent viscosity limited to viscosity ratio of 1.000000e+05 in 254533 cells 
   305  1.3812e+10  1.3438e-02  4.7255e-02  3.9547e-02  2.3510e-02  9.9413e-01  4.9692e-01  1:30:23  195

 absolute pressure limited to 5.000000e+10 in 263080 cells on zone 900 

 turbulent viscosity limited to viscosity ratio of 1.000000e+05 in 253912 cells 
   306  1.3710e+10  1.3731e-02  4.6671e-02  4.0361e-02  2.5020e-02  9.9429e-01  4.9604e-01  1:30:03  194

 absolute pressure limited to 5.000000e+10 in 263069 cells on zone 900 

 turbulent viscosity limited to viscosity ratio of 1.000000e+05 in 253995 cells 
   307  1.3093e+10  1.3781e-02  4.7555e-02  4.0548e-02  2.5608e-02  9.9714e-01  4.9695e-01  1:29:04  193

 absolute pressure limited to 5.000000e+10 in 263053 cells on zone 900 

 turbulent viscosity limited to viscosity ratio of 1.000000e+05 in 253408 cells 
   308  1.2791e+10  1.4238e-02  4.9137e-02  4.2906e-02  2.7537e-02  9.9884e-01  4.9865e-01  1:29:59  192

 absolute pressure limited to 5.000000e+10 in 263073 cells on zone 900 

 turbulent viscosity limited to viscosity ratio of 1.000000e+05 in 253356 cells 

  iter  continuity  x-velocity  y-velocity  z-velocity      energy           k       omega     time/iter
   309  1.3244e+10  1.5298e-02  5.0960e-02  4.2118e-02  2.6868e-02  9.9659e-01  4.9778e-01  1:29:08  191

 absolute pressure limited to 5.000000e+10 in 263054 cells on zone 900 

 turbulent viscosity limited to viscosity ratio of 1.000000e+05 in 252483 cells 
   310  1.2884e+10  1.4897e-02  5.2812e-02  4.1172e-02  2.7393e-02  9.9882e-01  4.9880e-01  1:28:10  190

 absolute pressure limited to 5.000000e+10 in 263061 cells on zone 900 

 turbulent viscosity limited to viscosity ratio of 1.000000e+05 in 252932 cells 
   311  1.2451e+10  1.4525e-02  5.2663e-02  4.0721e-02  2.7574e-02  9.9796e-01  4.9836e-01  1:28:21  189

 absolute pressure limited to 5.000000e+10 in 263075 cells on zone 900 

 turbulent viscosity limited to viscosity ratio of 1.000000e+05 in 252446 cells 
   312  1.2357e+10  1.5311e-02  5.2542e-02  3.9508e-02  2.6924e-02  9.9771e-01  4.9807e-01  1:28:03  188

 absolute pressure limited to 5.000000e+10 in 263074 cells on zone 900 

 turbulent viscosity limited to viscosity ratio of 1.000000e+05 in 252776 cells 
   313  1.2279e+10  1.4484e-02  5.1246e-02  3.8049e-02  2.6957e-02  9.9485e-01  4.9638e-01  1:26:58  187

 absolute pressure limited to 5.000000e+10 in 263061 cells on zone 900 

 turbulent viscosity limited to viscosity ratio of 1.000000e+05 in 252396 cells 
   314  1.2056e+10  1.4371e-02  5.0231e-02  3.6965e-02  2.7716e-02  9.8925e-01  4.9362e-01  1:26:03  186

 absolute pressure limited to 5.000000e+10 in 263045 cells on zone 900 

 turbulent viscosity limited to viscosity ratio of 1.000000e+05 in 252745 cells 
   315  1.1354e+10  1.4355e-02  5.0825e-02  3.8473e-02  2.7532e-02  9.9871e-01  4.9818e-01  1:26:26  185

 absolute pressure limited to 5.000000e+10 in 263073 cells on zone 900 

 turbulent viscosity limited to viscosity ratio of 1.000000e+05 in 252151 cells 
   316  1.1352e+10  1.4948e-02  5.0755e-02  3.8634e-02  2.7005e-02  9.9755e-01  4.9789e-01  1:25:28  184

 absolute pressure limited to 5.000000e+10 in 263058 cells on zone 900 

 turbulent viscosity limited to viscosity ratio of 1.000000e+05 in 252624 cells 
   317  1.1359e+10  1.4700e-02  4.9254e-02  3.9676e-02  2.6429e-02  9.9879e-01  4.9861e-01  1:24:35  183

 absolute pressure limited to 5.000000e+10 in 263077 cells on zone 900 

 turbulent viscosity limited to viscosity ratio of 1.000000e+05 in 252296 cells 
   318  1.1230e+10  1.4958e-02  5.0489e-02  3.9128e-02  2.7163e-02  9.9581e-01  4.9769e-01  1:25:00  182

 absolute pressure limited to 5.000000e+10 in 263077 cells on zone 900 

 turbulent viscosity limited to viscosity ratio of 1.000000e+05 in 252596 cells 
   319  1.1047e+10  1.5719e-02  5.1100e-02  3.9549e-02  2.7313e-02  9.9004e-01  4.9562e-01  1:24:24  181

 absolute pressure limited to 5.000000e+10 in 263093 cells on zone 900 

 turbulent viscosity limited to viscosity ratio of 1.000000e+05 in 252478 cells 

  iter  continuity  x-velocity  y-velocity  z-velocity      energy           k       omega     time/iter
   320  1.0959e+10  1.5361e-02  5.0982e-02  4.1541e-02  2.8243e-02  9.9801e-01  4.9777e-01  1:23:50  180

 absolute pressure limited to 5.000000e+10 in 263084 cells on zone 900 

 turbulent viscosity limited to viscosity ratio of 1.000000e+05 in 252637 cells 
   321  1.0733e+10  1.4575e-02  5.0908e-02  4.0374e-02  2.7870e-02  9.9682e-01  4.9729e-01  1:22:25  179

 absolute pressure limited to 5.000000e+10 in 263073 cells on zone 900 

 turbulent viscosity limited to viscosity ratio of 1.000000e+05 in 252468 cells 
   322  1.0462e+10  1.4606e-02  4.9801e-02  4.0379e-02  2.7887e-02  9.9799e-01  4.9861e-01  1:21:44  178

 absolute pressure limited to 5.000000e+10 in 263063 cells on zone 900 

 turbulent viscosity limited to viscosity ratio of 1.000000e+05 in 252454 cells 
   323  1.0360e+10  1.4693e-02  4.7792e-02  3.8413e-02  2.7869e-02  9.9918e-01  4.9923e-01  1:20:06  177

 absolute pressure limited to 5.000000e+10 in 263077 cells on zone 900 

 turbulent viscosity limited to viscosity ratio of 1.000000e+05 in 252361 cells 
   324  1.0421e+10  1.5182e-02  4.9623e-02  3.8234e-02  2.9355e-02  9.9544e-01  4.9794e-01  1:20:36  176

 absolute pressure limited to 5.000000e+10 in 263062 cells on zone 900 

 turbulent viscosity limited to viscosity ratio of 1.000000e+05 in 252088 cells 
   325  1.0551e+10  1.4876e-02  4.7850e-02  3.7374e-02  2.9304e-02  9.9322e-01  4.9561e-01  1:20:07  175

 absolute pressure limited to 5.000000e+10 in 263070 cells on zone 900 

 turbulent viscosity limited to viscosity ratio of 1.000000e+05 in 252467 cells 
   326  1.0062e+10  1.4114e-02  4.6071e-02  3.7096e-02  3.0667e-02  9.8830e-01  4.9138e-01  1:21:06  174

 absolute pressure limited to 5.000000e+10 in 263108 cells on zone 900 

 turbulent viscosity limited to viscosity ratio of 1.000000e+05 in 251908 cells 
   327  9.9702e+09  1.3904e-02  4.4036e-02  3.5976e-02  3.2364e-02  9.7678e-01  4.8704e-01  1:19:27  173

 absolute pressure limited to 5.000000e+10 in 263086 cells on zone 900 

 turbulent viscosity limited to viscosity ratio of 1.000000e+05 in 251839 cells 
   328  9.8021e+09  1.4318e-02  4.4412e-02  3.6594e-02  3.0899e-02  9.8543e-01  4.8222e-01  1:19:57  172

 absolute pressure limited to 5.000000e+10 in 263075 cells on zone 900 

 turbulent viscosity limited to viscosity ratio of 1.000000e+05 in 251051 cells 
   329  9.5437e+09  1.3811e-02  4.2562e-02  3.5720e-02  3.1561e-02  9.9153e-01  4.9183e-01  1:19:18  171

 absolute pressure limited to 5.000000e+10 in 263076 cells on zone 900 

 turbulent viscosity limited to viscosity ratio of 1.000000e+05 in 251386 cells 
   330  9.5298e+09  1.5718e-02  4.6828e-02  3.7440e-02  3.1758e-02  9.8545e-01  4.8639e-01  1:18:20  170

 absolute pressure limited to 5.000000e+10 in 263060 cells on zone 900 

 turbulent viscosity limited to viscosity ratio of 1.000000e+05 in 251152 cells 

  iter  continuity  x-velocity  y-velocity  z-velocity      energy           k       omega     time/iter
   331  8.9640e+09  1.5602e-02  4.6514e-02  3.8022e-02  3.2502e-02  9.9126e-01  4.9070e-01  1:17:11  169

 absolute pressure limited to 5.000000e+10 in 263096 cells on zone 900 

 turbulent viscosity limited to viscosity ratio of 1.000000e+05 in 251726 cells 
   332  9.0882e+09  1.5812e-02  4.5800e-02  4.0353e-02  3.4989e-02  9.8371e-01  4.8426e-01  1:16:53  168

 absolute pressure limited to 5.000000e+10 in 263098 cells on zone 900 

 turbulent viscosity limited to viscosity ratio of 1.000000e+05 in 250894 cells 
   333  9.0479e+09  1.4842e-02  4.4816e-02  4.0914e-02  3.2720e-02  9.9896e-01  4.9776e-01  1:16:53  167

 absolute pressure limited to 5.000000e+10 in 263076 cells on zone 900 

 turbulent viscosity limited to viscosity ratio of 1.000000e+05 in 251746 cells 
   334  8.7089e+09  1.5011e-02  4.4424e-02  4.0501e-02  3.3860e-02  9.9772e-01  4.9729e-01  1:16:59  166

 absolute pressure limited to 5.000000e+10 in 263075 cells on zone 900 

 turbulent viscosity limited to viscosity ratio of 1.000000e+05 in 251085 cells 
   335  8.8741e+09  1.6180e-02  4.7328e-02  3.9263e-02  3.3527e-02  9.9629e-01  4.9662e-01  1:16:25  165

 absolute pressure limited to 5.000000e+10 in 263097 cells on zone 900 

 turbulent viscosity limited to viscosity ratio of 1.000000e+05 in 251783 cells 
   336  8.8877e+09  1.6673e-02  5.1511e-02  3.9493e-02  3.1051e-02  9.9705e-01  4.9720e-01  1:15:29  164

 absolute pressure limited to 5.000000e+10 in 263081 cells on zone 900 

 turbulent viscosity limited to viscosity ratio of 1.000000e+05 in 251139 cells 
   337  8.5024e+09  1.6329e-02  4.8695e-02  4.2056e-02  3.1030e-02  9.9131e-01  4.9445e-01  1:15:24  163
 temperature limited to 5.000000e+03 in 163 cells on zone 900 in domain 1
 
 absolute pressure limited to 5.000000e+10 in 263104 cells on zone 900 

 turbulent viscosity limited to viscosity ratio of 1.000000e+05 in 251510 cells 
   338  8.9383e+09  1.5775e-02  4.8040e-02  4.1525e-02  3.2657e-02  9.7723e-01  4.8781e-01  1:14:47  162
 temperature limited to 5.000000e+03 in 493 cells on zone 900 in domain 1
 
 absolute pressure limited to 5.000000e+10 in 263108 cells on zone 900 

 turbulent viscosity limited to viscosity ratio of 1.000000e+05 in 250964 cells 
   339  9.0361e+09  1.5665e-02  4.7627e-02  3.9884e-02  3.2406e-02  9.9582e-01  4.9588e-01  1:14:23  161
 temperature limited to 5.000000e+03 in 3163 cells on zone 900 in domain 1
 
 absolute pressure limited to 5.000000e+10 in 263088 cells on zone 900 

 turbulent viscosity limited to viscosity ratio of 1.000000e+05 in 251235 cells 
   340  8.5239e+09  1.5941e-02  4.7624e-02  4.1909e-02  3.3446e-02  9.8959e-01  4.9279e-01  1:13:57  160
 temperature limited to 5.000000e+03 in 3280 cells on zone 900 in domain 1
 
 absolute pressure limited to 5.000000e+10 in 263100 cells on zone 900 

 turbulent viscosity limited to viscosity ratio of 1.000000e+05 in 251361 cells 
   341  8.7610e+09  1.7330e-02  5.0710e-02  4.2465e-02  3.1969e-02  9.8995e-01  4.9085e-01  1:13:36  159
 temperature limited to 5.000000e+03 in 3333 cells on zone 900 in domain 1
  temperature limited to 5.000000e+03 on 8 faces

 absolute pressure limited to 5.000000e+10 in 263094 cells on zone 900 

 turbulent viscosity limited to viscosity ratio of 1.000000e+05 in 251703 cells 

  iter  continuity  x-velocity  y-velocity  z-velocity      energy           k       omega     time/iter
   342  8.6969e+09  1.6250e-02  5.1480e-02  4.5074e-02  3.2856e-02  9.9579e-01  4.9439e-01  1:13:37  158
 temperature limited to 5.000000e+03 in 3060 cells on zone 900 in domain 1
  temperature limited to 5.000000e+03 on 340 faces

 absolute pressure limited to 5.000000e+10 in 263104 cells on zone 900 

 turbulent viscosity limited to viscosity ratio of 1.000000e+05 in 251321 cells 
   343  8.7788e+09  1.6821e-02  5.1780e-02  4.5008e-02  3.1456e-02  9.9341e-01  4.9295e-01  1:13:41  157
 temperature limited to 5.000000e+03 in 1757 cells on zone 900 in domain 1
  temperature limited to 5.000000e+03 on 530 faces

 absolute pressure limited to 5.000000e+10 in 263080 cells on zone 900 

 turbulent viscosity limited to viscosity ratio of 1.000000e+05 in 251332 cells 
   344  9.1612e+09  1.6526e-02  5.1844e-02  4.5385e-02  3.0840e-02  9.9909e-01  4.9887e-01  1:12:30  156
 temperature limited to 5.000000e+03 in 3025 cells on zone 900 in domain 1
  temperature limited to 5.000000e+03 on 508 faces

 absolute pressure limited to 5.000000e+10 in 263066 cells on zone 900 

 turbulent viscosity limited to viscosity ratio of 1.000000e+05 in 250964 cells 
   345  9.1235e+09  1.5931e-02  5.0955e-02  4.3124e-02  3.2421e-02  9.9625e-01  4.9744e-01  1:11:48  155
 temperature limited to 5.000000e+03 in 3230 cells on zone 900 in domain 1
  temperature limited to 5.000000e+03 on 559 faces

 absolute pressure limited to 5.000000e+10 in 263078 cells on zone 900 

 turbulent viscosity limited to viscosity ratio of 1.000000e+05 in 251398 cells 
   346  8.4550e+09  1.7069e-02  5.0911e-02  4.1710e-02  3.4832e-02  9.9603e-01  4.9693e-01  1:11:13  154
 temperature limited to 5.000000e+03 in 3382 cells on zone 900 in domain 1
  temperature limited to 5.000000e+03 on 593 faces

 absolute pressure limited to 5.000000e+10 in 263121 cells on zone 900 

 turbulent viscosity limited to viscosity ratio of 1.000000e+05 in 250930 cells 
   347  8.5777e+09  1.7115e-02  5.0134e-02  4.2536e-02  3.4748e-02  9.9280e-01  4.9525e-01  1:11:08  153
 temperature limited to 5.000000e+03 in 3440 cells on zone 900 in domain 1
  temperature limited to 5.000000e+03 on 759 faces

 absolute pressure limited to 5.000000e+10 in 263101 cells on zone 900 

 turbulent viscosity limited to viscosity ratio of 1.000000e+05 in 251426 cells 
   348  8.7884e+09  1.6631e-02  5.0022e-02  4.3940e-02  3.4640e-02  9.9390e-01  4.9471e-01  1:10:42  152
 temperature limited to 5.000000e+03 in 3638 cells on zone 900 in domain 1
  temperature limited to 5.000000e+03 on 947 faces

 absolute pressure limited to 5.000000e+10 in 263099 cells on zone 900 

 turbulent viscosity limited to viscosity ratio of 1.000000e+05 in 250870 cells 
   349  8.4314e+09  1.6506e-02  5.3076e-02  4.3843e-02  3.3758e-02  9.9207e-01  4.9314e-01  1:09:52  151
 temperature limited to 5.000000e+03 in 2631 cells on zone 900 in domain 1
  temperature limited to 5.000000e+03 on 961 faces

 absolute pressure limited to 5.000000e+10 in 263097 cells on zone 900 

 turbulent viscosity limited to viscosity ratio of 1.000000e+05 in 250920 cells 
   350  8.7968e+09  1.6848e-02  5.1262e-02  4.5953e-02  3.4047e-02  9.9528e-01  4.9450e-01  1:09:43  150
 temperature limited to 5.000000e+03 in 2267 cells on zone 900 in domain 1
  temperature limited to 5.000000e+03 on 801 faces

 absolute pressure limited to 5.000000e+10 in 263066 cells on zone 900 

 turbulent viscosity limited to viscosity ratio of 1.000000e+05 in 250019 cells 
   351  8.9389e+09  1.7727e-02  5.2140e-02  4.2244e-02  3.5743e-02  9.9506e-01  4.9496e-01  1:08:20  149
 temperature limited to 5.000000e+03 in 3036 cells on zone 900 in domain 1
  temperature limited to 5.000000e+03 on 692 faces

 absolute pressure limited to 5.000000e+10 in 263073 cells on zone 900 

 turbulent viscosity limited to viscosity ratio of 1.000000e+05 in 250128 cells 
   352  8.5697e+09  1.6791e-02  5.4123e-02  4.1622e-02  3.8961e-02  9.9997e-01  4.9994e-01  1:07:55  148
 temperature limited to 5.000000e+03 in 75 cells on zone 900 in domain 1
  temperature limited to 5.000000e+03 on 350 faces

 absolute pressure limited to 5.000000e+10 in 263091 cells on zone 900 

 turbulent viscosity limited to viscosity ratio of 1.000000e+05 in 249645 cells 

  iter  continuity  x-velocity  y-velocity  z-velocity      energy           k       omega     time/iter
   353  8.5857e+09  1.6728e-02  5.2444e-02  4.0711e-02  3.8589e-02  9.9978e-01  4.9984e-01  1:07:21  147
 temperature limited to 5.000000e+03 in 3194 cells on zone 900 in domain 1
 
 absolute pressure limited to 5.000000e+10 in 263081 cells on zone 900 

 turbulent viscosity limited to viscosity ratio of 1.000000e+05 in 248981 cells 
   354  8.2278e+09  1.6044e-02  5.1035e-02  4.0106e-02  3.9520e-02  9.9909e-01  4.9962e-01  1:06:56  146
 temperature limited to 5.000000e+03 in 3391 cells on zone 900 in domain 1
  temperature limited to 5.000000e+03 on 3 faces

 absolute pressure limited to 5.000000e+10 in 263092 cells on zone 900 

 turbulent viscosity limited to viscosity ratio of 1.000000e+05 in 248279 cells 
   355  8.0787e+09  1.5502e-02  4.8062e-02  3.8964e-02  3.9681e-02  9.9683e-01  4.9907e-01  1:05:36  145
 temperature limited to 5.000000e+03 in 92 cells on zone 900 in domain 1
  temperature limited to 5.000000e+03 on 6 faces

 absolute pressure limited to 5.000000e+10 in 263091 cells on zone 900 

 turbulent viscosity limited to viscosity ratio of 1.000000e+05 in 248569 cells 
   356  8.4933e+09  1.5823e-02  4.7765e-02  3.8443e-02  4.2159e-02  9.9297e-01  4.9787e-01  1:05:10  144
 temperature limited to 5.000000e+03 in 10 cells on zone 900 in domain 1
  temperature limited to 5.000000e+03 on 3 faces

 absolute pressure limited to 5.000000e+10 in 263078 cells on zone 900 

 turbulent viscosity limited to viscosity ratio of 1.000000e+05 in 248487 cells 
   357  7.8636e+09  1.5948e-02  4.8256e-02  3.6178e-02  4.3547e-02  9.9909e-01  4.9901e-01  1:05:08  143

 absolute pressure limited to 5.000000e+10 in 263073 cells on zone 900 

 turbulent viscosity limited to viscosity ratio of 1.000000e+05 in 248505 cells 
   358  7.2389e+09  1.7176e-02  4.8820e-02  3.7820e-02  4.4297e-02  9.9614e-01  4.9827e-01  1:03:59  142
 temperature limited to 5.000000e+03 in 4 cells on zone 900 in domain 1
 
 absolute pressure limited to 5.000000e+10 in 263111 cells on zone 900 

 turbulent viscosity limited to viscosity ratio of 1.000000e+05 in 248671 cells 
   359  7.7430e+09  1.7008e-02  5.0175e-02  4.0858e-02  4.4653e-02  9.9851e-01  4.9845e-01  1:02:23  141

 absolute pressure limited to 5.000000e+10 in 263093 cells on zone 900 

 turbulent viscosity limited to viscosity ratio of 1.000000e+05 in 249234 cells 
   360  8.0796e+09  1.6347e-02  5.0568e-02  4.1544e-02  4.1818e-02  9.9692e-01  4.9725e-01  1:02:31  140

 absolute pressure limited to 5.000000e+10 in 263090 cells on zone 900 

 turbulent viscosity limited to viscosity ratio of 1.000000e+05 in 248895 cells 
   361  7.4768e+09  1.6140e-02  4.9979e-02  3.9508e-02  4.0666e-02  9.9601e-01  4.9730e-01  1:01:55  139

 absolute pressure limited to 5.000000e+10 in 263108 cells on zone 900 

 turbulent viscosity limited to viscosity ratio of 1.000000e+05 in 248327 cells 
   362  7.2747e+09  1.6813e-02  4.9288e-02  4.1248e-02  4.5167e-02  9.9292e-01  4.9604e-01  1:01:51  138

 absolute pressure limited to 5.000000e+10 in 263104 cells on zone 900 

 turbulent viscosity limited to viscosity ratio of 1.000000e+05 in 247781 cells 
   363  7.9269e+09  1.8198e-02  5.0907e-02  4.2111e-02  4.5343e-02  9.8908e-01  4.9304e-01  1:01:31  137

 absolute pressure limited to 5.000000e+10 in 263119 cells on zone 900 

 turbulent viscosity limited to viscosity ratio of 1.000000e+05 in 247839 cells 

  iter  continuity  x-velocity  y-velocity  z-velocity      energy           k       omega     time/iter
   364  7.5496e+09  1.7618e-02  5.1991e-02  4.2496e-02  4.2831e-02  9.9931e-01  4.9927e-01  1:00:19  136

 absolute pressure limited to 5.000000e+10 in 263094 cells on zone 900 

 turbulent viscosity limited to viscosity ratio of 1.000000e+05 in 246815 cells 
   365  7.1472e+09  1.6931e-02  5.0356e-02  4.4402e-02  4.6499e-02  9.9750e-01  4.9868e-01  0:59:30  135

 absolute pressure limited to 5.000000e+10 in 263113 cells on zone 900 

 turbulent viscosity limited to viscosity ratio of 1.000000e+05 in 248019 cells 
   366  7.9615e+09  1.7524e-02  5.1104e-02  4.4820e-02  4.4860e-02  9.9176e-01  4.9667e-01  1:00:17  134

 absolute pressure limited to 5.000000e+10 in 263094 cells on zone 900 

 turbulent viscosity limited to viscosity ratio of 1.000000e+05 in 247478 cells 
   367  8.0131e+09  1.7055e-02  5.0377e-02  4.5023e-02  4.3669e-02  9.9687e-01  4.9679e-01  0:59:41  133

 absolute pressure limited to 5.000000e+10 in 263106 cells on zone 900 

 turbulent viscosity limited to viscosity ratio of 1.000000e+05 in 248165 cells 
   368  8.0024e+09  1.6981e-02  5.0199e-02  4.2363e-02  4.3337e-02  9.9101e-01  4.9405e-01  0:58:48  132

 absolute pressure limited to 5.000000e+10 in 263124 cells on zone 900 

 turbulent viscosity limited to viscosity ratio of 1.000000e+05 in 248162 cells 
   369  8.5412e+09  1.6291e-02  4.8185e-02  4.2226e-02  3.9417e-02  9.9294e-01  4.9224e-01  0:58:47  131

 absolute pressure limited to 5.000000e+10 in 263126 cells on zone 900 

 turbulent viscosity limited to viscosity ratio of 1.000000e+05 in 248080 cells 
   370  8.1343e+09  1.5790e-02  4.7292e-02  4.0084e-02  3.5995e-02  9.9747e-01  4.9746e-01  0:58:42  130

 absolute pressure limited to 5.000000e+10 in 263112 cells on zone 900 

 turbulent viscosity limited to viscosity ratio of 1.000000e+05 in 247771 cells 
   371  7.9021e+09  1.5987e-02  4.6931e-02  4.1214e-02  3.4667e-02  9.9100e-01  4.9402e-01  0:57:43  129

 absolute pressure limited to 5.000000e+10 in 263107 cells on zone 900 

 turbulent viscosity limited to viscosity ratio of 1.000000e+05 in 248518 cells 
   372  8.3930e+09  1.5791e-02  4.5589e-02  4.0573e-02  3.7506e-02  9.9287e-01  4.9379e-01  0:57:24  128

 absolute pressure limited to 5.000000e+10 in 263098 cells on zone 900 

 turbulent viscosity limited to viscosity ratio of 1.000000e+05 in 248615 cells 
   373  8.1293e+09  1.5913e-02  4.6474e-02  4.2111e-02  3.7415e-02  9.8000e-01  4.9150e-01  0:56:42  127

 absolute pressure limited to 5.000000e+10 in 263102 cells on zone 900 

 turbulent viscosity limited to viscosity ratio of 1.000000e+05 in 248456 cells 
[...]
  temperature limited to 5.000000e+03 in 74 cells on zone 900 in domain 1
 
 absolute pressure limited to 5.000000e+10 in 262994 cells on zone 900 

 turbulent viscosity limited to viscosity ratio of 1.000000e+05 in 251634 cells 
   442  6.7015e+10  1.1410e-02  4.7236e-02  3.4237e-02  4.9537e-02  9.9549e-01  4.9651e-01  0:26:51   58
 temperature limited to 5.000000e+03 in 181 cells on zone 900 in domain 1
 
 absolute pressure limited to 5.000000e+10 in 263008 cells on zone 900 

 turbulent viscosity limited to viscosity ratio of 1.000000e+05 in 252591 cells 
   443  7.1541e+10  1.1663e-02  4.6986e-02  3.3757e-02  4.8722e-02  9.9400e-01  4.9534e-01  0:26:21   57
 temperature limited to 1.000000e+00 in 1 cells on zone 900 in domain 1
  temperature limited to 5.000000e+03 in 32 cells on zone 900 in domain 1
 
 absolute pressure limited to 5.000000e+10 in 263012 cells on zone 900 

 turbulent viscosity limited to viscosity ratio of 1.000000e+05 in 251643 cells 
   444  7.7517e+10  1.1962e-02  4.8396e-02  3.2538e-02  4.8055e-02  9.9769e-01  4.9717e-01  0:25:55   56
 temperature limited to 5.000000e+03 in 198 cells on zone 900 in domain 1
 
 absolute pressure limited to 5.000000e+10 in 262996 cells on zone 900 

 turbulent viscosity limited to viscosity ratio of 1.000000e+05 in 252295 cells 
   445  8.2356e+10  1.1736e-02  4.8724e-02  3.3309e-02  5.0843e-02  9.9491e-01  4.9607e-01  0:25:17   55
 temperature limited to 5.000000e+03 in 301 cells on zone 900 in domain 1
 
 absolute pressure limited to 5.000000e+10 in 262987 cells on zone 900 

 turbulent viscosity limited to viscosity ratio of 1.000000e+05 in 251474 cells 
   446  8.8686e+10  1.1965e-02  5.0733e-02  3.3384e-02  4.9763e-02  9.9207e-01  4.9581e-01  0:25:12   54
 temperature limited to 5.000000e+03 in 415 cells on zone 900 in domain 1
  temperature limited to 5.000000e+03 on 7 faces

 absolute pressure limited to 5.000000e+10 in 262938 cells on zone 900 

 turbulent viscosity limited to viscosity ratio of 1.000000e+05 in 252096 cells 
   447  9.2520e+10  1.1720e-02  5.0540e-02  3.5984e-02  4.8997e-02  9.9759e-01  4.9751e-01  0:24:46   53
 temperature limited to 5.000000e+03 in 273 cells on zone 900 in domain 1
  temperature limited to 5.000000e+03 on 6 faces

 absolute pressure limited to 5.000000e+10 in 262997 cells on zone 900 

 turbulent viscosity limited to viscosity ratio of 1.000000e+05 in 251397 cells 
   448  1.0357e+11  1.1084e-02  4.7060e-02  3.4672e-02  4.7784e-02  9.8916e-01  4.9381e-01  0:24:00   52
 temperature limited to 5.000000e+03 in 613 cells on zone 900 in domain 1
  temperature limited to 5.000000e+03 on 9 faces

 absolute pressure limited to 5.000000e+10 in 262979 cells on zone 900 

 turbulent viscosity limited to viscosity ratio of 1.000000e+05 in 252025 cells 
   449  1.1640e+11  1.1241e-02  4.8268e-02  3.4645e-02  4.5516e-02  9.9602e-01  4.9652e-01  0:23:47   51
 temperature limited to 5.000000e+03 in 731 cells on zone 900 in domain 1
  temperature limited to 5.000000e+03 on 38 faces

 absolute pressure limited to 5.000000e+10 in 262977 cells on zone 900 

 turbulent viscosity limited to viscosity ratio of 1.000000e+05 in 251287 cells 
   450  1.2226e+11  1.0830e-02  4.8629e-02  3.6273e-02  4.5721e-02  9.9346e-01  4.9488e-01  0:23:36   50
 temperature limited to 5.000000e+03 in 854 cells on zone 900 in domain 1
  temperature limited to 5.000000e+03 on 81 faces

 absolute pressure limited to 5.000000e+10 in 263002 cells on zone 900 

 turbulent viscosity limited to viscosity ratio of 1.000000e+05 in 252296 cells 
   451  1.3804e+11  1.1373e-02  5.0563e-02  3.3075e-02  4.6274e-02  9.8682e-01  4.9120e-01  0:22:57   49
 temperature limited to 5.000000e+03 in 186 cells on zone 900 in domain 1
  temperature limited to 5.000000e+03 on 71 faces

 absolute pressure limited to 5.000000e+10 in 262968 cells on zone 900 

 turbulent viscosity limited to viscosity ratio of 1.000000e+05 in 251261 cells 

  iter  continuity  x-velocity  y-velocity  z-velocity      energy           k       omega     time/iter
   452  1.4304e+11  1.0937e-02  5.0017e-02  3.4017e-02  4.3668e-02  9.7866e-01  4.8511e-01  0:22:31   48
 temperature limited to 5.000000e+03 in 55 cells on zone 900 in domain 1
  temperature limited to 5.000000e+03 on 26 faces

 absolute pressure limited to 5.000000e+10 in 262950 cells on zone 900 

 turbulent viscosity limited to viscosity ratio of 1.000000e+05 in 252139 cells 
   453  1.5214e+11  1.0384e-02  4.6951e-02  3.5001e-02  4.2919e-02  9.8067e-01  4.8328e-01  0:21:58   47
 temperature limited to 5.000000e+03 in 24 cells on zone 900 in domain 1
  temperature limited to 5.000000e+03 on 7 faces

 absolute pressure limited to 5.000000e+10 in 262960 cells on zone 900 

 turbulent viscosity limited to viscosity ratio of 1.000000e+05 in 250638 cells 
   454  1.7296e+11  1.0418e-02  4.7075e-02  3.4080e-02  3.8299e-02  9.9892e-01  4.9854e-01  0:21:45   46

 absolute pressure limited to 5.000000e+10 in 262981 cells on zone 900 

 turbulent viscosity limited to viscosity ratio of 1.000000e+05 in 252094 cells 
   455  1.7663e+11  1.0336e-02  4.7869e-02  3.5371e-02  3.9086e-02  9.9685e-01  4.9773e-01  0:21:34   45
 temperature limited to 1.000000e+00 in 1 cells on zone 900 in domain 1
 
 absolute pressure limited to 5.000000e+10 in 262964 cells on zone 900 

 turbulent viscosity limited to viscosity ratio of 1.000000e+05 in 251020 cells 
   456  1.8996e+11  1.0506e-02  4.9145e-02  3.6337e-02  4.0479e-02  9.9685e-01  4.9694e-01  0:20:46   44
 temperature limited to 1.000000e+00 in 2 cells on zone 900 in domain 1
 
 absolute pressure limited to 5.000000e+10 in 262943 cells on zone 900 

 turbulent viscosity limited to viscosity ratio of 1.000000e+05 in 252196 cells 
   457  2.2495e+11  9.9923e-03  4.6964e-02  3.7116e-02  4.1702e-02  9.9885e-01  4.9874e-01  0:20:34   43
 temperature limited to 1.000000e+00 in 4 cells on zone 900 in domain 1
 
 absolute pressure limited to 5.000000e+10 in 262927 cells on zone 900 

 turbulent viscosity limited to viscosity ratio of 1.000000e+05 in 251057 cells 
   458  2.2796e+11  9.7554e-03  4.6646e-02  3.5834e-02  3.8959e-02  9.9938e-01  4.9941e-01  0:19:55   42

 absolute pressure limited to 5.000000e+10 in 262928 cells on zone 900 

 turbulent viscosity limited to viscosity ratio of 1.000000e+05 in 252446 cells 
   459  2.4615e+11  9.3466e-03  4.4450e-02  3.3505e-02  3.8438e-02  9.9689e-01  4.9853e-01  0:19:18   41
 temperature limited to 1.000000e+00 in 4 cells on zone 900 in domain 1
 
 absolute pressure limited to 5.000000e+10 in 262930 cells on zone 900 

 turbulent viscosity limited to viscosity ratio of 1.000000e+05 in 251466 cells 
   460  2.7614e+11  8.9523e-03  4.2552e-02  3.2050e-02  3.4237e-02  9.9704e-01  4.9779e-01  0:19:11   40
 temperature limited to 1.000000e+00 in 6 cells on zone 900 in domain 1
 
 absolute pressure limited to 5.000000e+10 in 262918 cells on zone 900 

 turbulent viscosity limited to viscosity ratio of 1.000000e+05 in 252358 cells 
   461  2.8287e+11  8.7017e-03  4.2214e-02  3.1439e-02  3.2117e-02  9.8714e-01  4.9471e-01  0:18:32   39
 temperature limited to 1.000000e+00 in 8 cells on zone 900 in domain 1
 
 absolute pressure limited to 5.000000e+10 in 262938 cells on zone 900 

 turbulent viscosity limited to viscosity ratio of 1.000000e+05 in 251907 cells 
   462  3.0155e+11  8.5591e-03  4.1733e-02  3.0758e-02  3.3621e-02  9.9574e-01  4.9596e-01  0:18:07   38
 temperature limited to 1.000000e+00 in 6 cells on zone 900 in domain 1
 
 absolute pressure limited to 5.000000e+10 in 262977 cells on zone 900 

 turbulent viscosity limited to viscosity ratio of 1.000000e+05 in 252670 cells 

  iter  continuity  x-velocity  y-velocity  z-velocity      energy           k       omega     time/iter
   463  3.2564e+11  8.7137e-03  4.2468e-02  3.1076e-02  3.5283e-02  9.9816e-01  4.9719e-01  0:17:30   37
 temperature limited to 1.000000e+00 in 15 cells on zone 900 in domain 1
 
 absolute pressure limited to 5.000000e+10 in 262941 cells on zone 900 

 turbulent viscosity limited to viscosity ratio of 1.000000e+05 in 251277 cells 
   464  3.4786e+11  8.6563e-03  4.2871e-02  3.0088e-02  3.4060e-02  9.9464e-01  4.9453e-01  0:16:58   36

 absolute pressure limited to 5.000000e+10 in 262950 cells on zone 900 

 turbulent viscosity limited to viscosity ratio of 1.000000e+05 in 252474 cells 
   465  3.5723e+11  8.2654e-03  4.1345e-02  2.9375e-02  3.3581e-02  9.9505e-01  4.9548e-01  0:16:29   35
 temperature limited to 1.000000e+00 in 1 cells on zone 900 in domain 1
 
 absolute pressure limited to 5.000000e+10 in 262911 cells on zone 900 

 turbulent viscosity limited to viscosity ratio of 1.000000e+05 in 250978 cells 
   466  3.6320e+11  8.1553e-03  4.0913e-02  2.9191e-02  3.2987e-02  9.8639e-01  4.9210e-01  0:15:50   34

 absolute pressure limited to 5.000000e+10 in 262931 cells on zone 900 

 turbulent viscosity limited to viscosity ratio of 1.000000e+05 in 252460 cells 
   467  4.0424e+11  8.2984e-03  4.1361e-02  2.8646e-02  3.0343e-02  9.7197e-01  4.8671e-01  0:15:21   33

 absolute pressure limited to 5.000000e+10 in 262924 cells on zone 900 

 turbulent viscosity limited to viscosity ratio of 1.000000e+05 in 250920 cells 
   468  4.3402e+11  8.4463e-03  4.2725e-02  2.9068e-02  2.8627e-02  9.9225e-01  4.9260e-01  0:14:58   32

 absolute pressure limited to 5.000000e+10 in 262915 cells on zone 900 

 turbulent viscosity limited to viscosity ratio of 1.000000e+05 in 252559 cells 
   469  4.4418e+11  8.5381e-03  4.3480e-02  2.9655e-02  3.1118e-02  9.9874e-01  4.9883e-01  0:14:21   31

 absolute pressure limited to 5.000000e+10 in 262934 cells on zone 900 

 turbulent viscosity limited to viscosity ratio of 1.000000e+05 in 251042 cells 
   470  4.7118e+11  8.8452e-03  4.5226e-02  2.7213e-02  2.9933e-02  9.9426e-01  4.9748e-01  0:14:03   30
 temperature limited to 1.000000e+00 in 1 cells on zone 900 in domain 1
 
 absolute pressure limited to 5.000000e+10 in 262903 cells on zone 900 

 turbulent viscosity limited to viscosity ratio of 1.000000e+05 in 252465 cells 
   471  4.7370e+11  8.4645e-03  4.3103e-02  2.5908e-02  3.1325e-02  9.9868e-01  4.9889e-01  0:13:34   29
 temperature limited to 1.000000e+00 in 7 cells on zone 900 in domain 1
  temperature limited to 5.000000e+03 in 20 cells on zone 900 in domain 1
 
 absolute pressure limited to 5.000000e+10 in 262872 cells on zone 900 

 turbulent viscosity limited to viscosity ratio of 1.000000e+05 in 251714 cells 
   472  4.6848e+11  8.8523e-03  4.4920e-02  2.8533e-02  3.3097e-02  9.9710e-01  4.9807e-01  0:13:22   28
 temperature limited to 5.000000e+03 in 94 cells on zone 900 in domain 1
 
 absolute pressure limited to 5.000000e+10 in 262939 cells on zone 900 

 turbulent viscosity limited to viscosity ratio of 1.000000e+05 in 252499 cells 
   473  5.0442e+11  9.0090e-03  4.5749e-02  2.9973e-02  2.9351e-02  9.9450e-01  4.9665e-01  0:12:51   27
 temperature limited to 5.000000e+03 in 191 cells on zone 900 in domain 1
 
 absolute pressure limited to 5.000000e+10 in 262905 cells on zone 900 

 turbulent viscosity limited to viscosity ratio of 1.000000e+05 in 252278 cells 

  iter  continuity  x-velocity  y-velocity  z-velocity      energy           k       omega     time/iter
   474  5.7464e+11  8.8090e-03  4.5272e-02  3.0572e-02  2.9514e-02  9.8558e-01  4.9308e-01  0:12:19   26
 temperature limited to 5.000000e+03 in 419 cells on zone 900 in domain 1
  temperature limited to 5.000000e+03 on 7 faces

 absolute pressure limited to 5.000000e+10 in 262914 cells on zone 900 

 turbulent viscosity limited to viscosity ratio of 1.000000e+05 in 252634 cells 
   475  6.0303e+11  9.0621e-03  4.7383e-02  3.1845e-02  2.8100e-02  9.9810e-01  4.9781e-01  0:11:50   25
 temperature limited to 5.000000e+03 in 663 cells on zone 900 in domain 1
  temperature limited to 5.000000e+03 on 19 faces

 absolute pressure limited to 5.000000e+10 in 262903 cells on zone 900 

 turbulent viscosity limited to viscosity ratio of 1.000000e+05 in 252326 cells 
   476  5.9128e+11  8.6405e-03  4.5025e-02  3.0185e-02  2.7880e-02  9.9720e-01  4.9755e-01  0:11:16   24
 temperature limited to 5.000000e+03 in 734 cells on zone 900 in domain 1
  temperature limited to 5.000000e+03 on 49 faces

 absolute pressure limited to 5.000000e+10 in 262879 cells on zone 900 

 turbulent viscosity limited to viscosity ratio of 1.000000e+05 in 252567 cells 
   477  6.0695e+11  8.3772e-03  4.3438e-02  2.8537e-02  2.7398e-02  9.9666e-01  4.9716e-01  0:10:49   23
 temperature limited to 5.000000e+03 in 331 cells on zone 900 in domain 1
  temperature limited to 5.000000e+03 on 49 faces

 absolute pressure limited to 5.000000e+10 in 262920 cells on zone 900 

 turbulent viscosity limited to viscosity ratio of 1.000000e+05 in 252449 cells 
   478  6.3908e+11  8.2806e-03  4.2739e-02  3.0442e-02  2.7813e-02  9.9271e-01  4.9511e-01  0:10:15   22
 temperature limited to 5.000000e+03 in 605 cells on zone 900 in domain 1
  temperature limited to 5.000000e+03 on 59 faces

 absolute pressure limited to 5.000000e+10 in 262913 cells on zone 900 

 turbulent viscosity limited to viscosity ratio of 1.000000e+05 in 252893 cells 
   479  6.6814e+11  8.6286e-03  4.5260e-02  2.9241e-02  2.6545e-02  9.8652e-01  4.9145e-01  0:09:40   21
 temperature limited to 5.000000e+03 in 96 cells on zone 900 in domain 1
  temperature limited to 5.000000e+03 on 41 faces

 absolute pressure limited to 5.000000e+10 in 262879 cells on zone 900 

 turbulent viscosity limited to viscosity ratio of 1.000000e+05 in 252543 cells 
   480  6.8839e+11  8.5796e-03  4.5130e-02  3.0144e-02  2.9369e-02  9.7275e-01  4.8521e-01  0:09:19   20
 temperature limited to 5.000000e+03 in 292 cells on zone 900 in domain 1
 
 absolute pressure limited to 5.000000e+10 in 262912 cells on zone 900 

 turbulent viscosity limited to viscosity ratio of 1.000000e+05 in 252976 cells 
   481  7.1784e+11  8.7350e-03  4.6130e-02  3.0006e-02  2.8255e-02  9.9891e-01  4.9866e-01  0:08:57   19

 absolute pressure limited to 5.000000e+10 in 262914 cells on zone 900 

 turbulent viscosity limited to viscosity ratio of 1.000000e+05 in 252714 cells 
   482  7.2354e+11  8.7506e-03  4.6185e-02  2.9939e-02  2.6231e-02  9.9485e-01  4.9707e-01  0:08:25   18
 temperature limited to 5.000000e+03 in 143 cells on zone 900 in domain 1
 
 absolute pressure limited to 5.000000e+10 in 262878 cells on zone 900 

 turbulent viscosity limited to viscosity ratio of 1.000000e+05 in 252888 cells 
   483  6.7414e+11  8.7399e-03  4.6239e-02  3.1307e-02  2.5487e-02  9.9192e-01  4.9436e-01  0:07:47   17
 temperature limited to 5.000000e+03 in 22 cells on zone 900 in domain 1
 
 absolute pressure limited to 5.000000e+10 in 262889 cells on zone 900 

 turbulent viscosity limited to viscosity ratio of 1.000000e+05 in 252591 cells 
   484  7.1037e+11  8.2466e-03  4.3191e-02  3.0127e-02  2.4357e-02  9.7710e-01  4.8783e-01  0:07:27   16
 temperature limited to 5.000000e+03 in 335 cells on zone 900 in domain 1
 
 absolute pressure limited to 5.000000e+10 in 262882 cells on zone 900 

 turbulent viscosity limited to viscosity ratio of 1.000000e+05 in 252775 cells 

  iter  continuity  x-velocity  y-velocity  z-velocity      energy           k       omega     time/iter
   485  7.5128e+11  8.3146e-03  4.3591e-02  2.8409e-02  2.6260e-02  9.7227e-01  4.8210e-01  0:06:56   15
 temperature limited to 5.000000e+03 in 119 cells on zone 900 in domain 1
 
 absolute pressure limited to 5.000000e+10 in 262910 cells on zone 900 

 turbulent viscosity limited to viscosity ratio of 1.000000e+05 in 252606 cells 
   486  7.7393e+11  8.3303e-03  4.3922e-02  2.8806e-02  2.8209e-02  9.9749e-01  4.9667e-01  0:06:29   14
 temperature limited to 1.000000e+00 in 1 cells on zone 900 in domain 1
  temperature limited to 5.000000e+03 in 105 cells on zone 900 in domain 1
 
 absolute pressure limited to 5.000000e+10 in 262922 cells on zone 900 

 turbulent viscosity limited to viscosity ratio of 1.000000e+05 in 253001 cells 
   487  8.3743e+11  8.1675e-03  4.3253e-02  2.9050e-02  2.6378e-02  9.9296e-01  4.9299e-01  0:06:06   13
 temperature limited to 1.000000e+00 in 4 cells on zone 900 in domain 1
  temperature limited to 5.000000e+03 in 264 cells on zone 900 in domain 1
 
 absolute pressure limited to 5.000000e+10 in 262905 cells on zone 900 

 turbulent viscosity limited to viscosity ratio of 1.000000e+05 in 252837 cells 
   488  8.1762e+11  8.3319e-03  4.4374e-02  2.8599e-02  2.7703e-02  9.9013e-01  4.9094e-01  0:05:43   12
 temperature limited to 1.000000e+00 in 9 cells on zone 900 in domain 1
  temperature limited to 5.000000e+03 in 70 cells on zone 900 in domain 1
 
 absolute pressure limited to 5.000000e+10 in 262913 cells on zone 900 

 turbulent viscosity limited to viscosity ratio of 1.000000e+05 in 253164 cells 
   489  9.1056e+11  8.3518e-03  4.4212e-02  3.0355e-02  2.7479e-02  9.7993e-01  4.8931e-01  0:05:15   11
 temperature limited to 1.000000e+00 in 8 cells on zone 900 in domain 1
  temperature limited to 5.000000e+03 in 199 cells on zone 900 in domain 1
 
 absolute pressure limited to 5.000000e+10 in 262937 cells on zone 900 

 turbulent viscosity limited to viscosity ratio of 1.000000e+05 in 252875 cells 
   490  1.0251e+12  8.9505e-03  4.7728e-02  3.1370e-02  2.3379e-02  9.8841e-01  4.9000e-01  0:04:45   10
 temperature limited to 1.000000e+00 in 11 cells on zone 900 in domain 1
  temperature limited to 5.000000e+03 in 3 cells on zone 900 in domain 1
 
 absolute pressure limited to 5.000000e+10 in 262960 cells on zone 900 

 turbulent viscosity limited to viscosity ratio of 1.000000e+05 in 253064 cells 
   491  1.0214e+12  8.9939e-03  4.8251e-02  2.9341e-02  2.2007e-02  9.7907e-01  4.8289e-01  0:04:19    9
 temperature limited to 1.000000e+00 in 15 cells on zone 900 in domain 1
  temperature limited to 5.000000e+03 in 181 cells on zone 900 in domain 1
 
 absolute pressure limited to 5.000000e+10 in 262917 cells on zone 900 

 turbulent viscosity limited to viscosity ratio of 1.000000e+05 in 253007 cells 
   492  1.0704e+12  8.1698e-03  4.3541e-02  2.8441e-02  2.4801e-02  9.5777e-01  4.7101e-01  0:03:49    8
 temperature limited to 1.000000e+00 in 30 cells on zone 900 in domain 1
  temperature limited to 5.000000e+03 in 2 cells on zone 900 in domain 1
  temperature limited to 5.000000e+03 on 1 faces

 absolute pressure limited to 5.000000e+10 in 262904 cells on zone 900 

 turbulent viscosity limited to viscosity ratio of 1.000000e+05 in 252896 cells 
   493  1.1394e+12  8.1072e-03  4.3311e-02  2.9029e-02  2.5222e-02  9.5999e-01  4.6098e-01  0:03:18    7
 temperature limited to 1.000000e+00 in 33 cells on zone 900 in domain 1
  temperature limited to 5.000000e+03 in 13 cells on zone 900 in domain 1
  temperature limited to 5.000000e+03 on 2 faces

 absolute pressure limited to 5.000000e+10 in 262915 cells on zone 900 

 turbulent viscosity limited to viscosity ratio of 1.000000e+05 in 252806 cells 
   494  1.2026e+12  8.1287e-03  4.3655e-02  3.4429e-02  2.5380e-02  9.9125e-01  4.8280e-01  0:02:49    6
 temperature limited to 1.000000e+00 in 43 cells on zone 900 in domain 1
  temperature limited to 5.000000e+03 on 1 faces

 absolute pressure limited to 5.000000e+10 in 262929 cells on zone 900 

 turbulent viscosity limited to viscosity ratio of 1.000000e+05 in 252845 cells 
   495  1.4247e+12  8.3821e-03  4.4953e-02  3.4123e-02  2.4147e-02  9.9668e-01  4.9598e-01  0:02:21    5
 temperature limited to 1.000000e+00 in 38 cells on zone 900 in domain 1
  temperature limited to 5.000000e+03 in 14 cells on zone 900 in domain 1
 
 absolute pressure limited to 5.000000e+10 in 262914 cells on zone 900 

 turbulent viscosity limited to viscosity ratio of 1.000000e+05 in 252479 cells 

  iter  continuity  x-velocity  y-velocity  z-velocity      energy           k       omega     time/iter
   496  1.5925e+12  8.1960e-03  4.4206e-02  3.5584e-02  2.2610e-02  9.9487e-01  4.9546e-01  0:01:52    4
