/opt/crc/a/ansys/2024R1/v241/fluent/fluent24.1.0/bin/fluent -r24.1.0 3ddp -t1 -g
/opt/crc/a/ansys/2024R1/v241/fluent/fluent24.1.0/cortex/lnamd64/cortex.24.1.0 -f fluent -g (fluent "3ddp -pshmem  -host -r24.1.0 -t1 -mpi=intel -path/opt/crc/a/ansys/2024R1/v241/fluent -ssh")

Opening input/output transcript to file "/tmp/1007862.1.long/worker-241760-153766/task.19/fluent-20241130-012738-175014.trn".
Auto-Transcript Start Time:  01:27:38, 30 Nov 2024 
/opt/crc/a/ansys/2024R1/v241/fluent/fluent24.1.0/bin/fluent -r24.1.0 3ddp -pshmem -host -t1 -mpi=intel -path/opt/crc/a/ansys/2024R1/v241/fluent -ssh -cx d32cepyc190.crc.nd.edu:41451:39059
Starting /opt/crc/a/ansys/2024R1/v241/fluent/fluent24.1.0/lnamd64/3ddp_host/fluent.24.1.0 host -cx d32cepyc190.crc.nd.edu:41451:39059 "(list (rpsetvar (QUOTE parallel/function) "fluent 3ddp -flux -node -r24.1.0 -t1 -pshmem -mpi=intel -ssh") (rpsetvar (QUOTE parallel/rhost) "") (rpsetvar (QUOTE parallel/ruser) "") (rpsetvar (QUOTE parallel/nprocs_string) "1") (rpsetvar (QUOTE parallel/auto-spawn?) #t) (rpsetvar (QUOTE parallel/trace-level) 0) (rpsetvar (QUOTE parallel/remote-shell) 1) (rpsetvar (QUOTE parallel/path) "/opt/crc/a/ansys/2024R1/v241/fluent") (rpsetvar (QUOTE parallel/hostsfile) "") (rpsetvar (QUOTE gpuapp/devices) ""))"

              Welcome to ANSYS Fluent 2024 R1

              Copyright 1987-2024 ANSYS, Inc. All Rights Reserved.
              Unauthorized use, distribution or duplication is prohibited.
              This product is subject to U.S. laws governing export and re-export.
              For full Legal Notice, see documentation.

Build Time: Nov 22 2023 10:07:25 EST  Build Id: 10184  
 
Connected License Server List:	7504@linux5-lic.crc.nd.edu

*********************************************
Info: Your license enables 4-way parallel execution.
For faster simulations, please start the application with the appropriate parallel options.
*********************************************


     --------------------------------------------------------------
     This is an academic version of ANSYS FLUENT. Usage of this product
     license is limited to the terms and conditions specified in your ANSYS
     license form, additional terms section.
     --------------------------------------------------------------
Host spawning Node 0 on machine "d32cepyc190.crc.nd.edu" (unix).
/opt/crc/a/ansys/2024R1/v241/fluent/fluent24.1.0/bin/fluent -r24.1.0 3ddp -flux -node -t1 -pshmem -mpi=intel -ssh -mport 10.32.91.147:10.32.91.147:35397:0
Starting /opt/crc/a/ansys/2024R1/v241/fluent/fluent24.1.0/multiport/mpi/lnamd64/intel2021/bin/mpirun --rsh=ssh -f /tmp/fluent-appfile.etracey.175819 -genv I_MPI_FABRICS shm -genv FLUENT_ARCH lnamd64 -genv I_MPI_DEBUG 0 -genv I_MPI_ADJUST_GATHERV 3 -genv I_MPI_ADJUST_ALLREDUCE 2 -genv I_MPI_PLATFORM auto -genv PYTHONHOME /opt/crc/a/ansys/2024R1/v241/fluent/fluent24.1.0/../../commonfiles/CPython/3_10/linx64/Release/python -genv FLUENT_PROD_DIR /opt/crc/a/ansys/2024R1/v241/fluent/fluent24.1.0 -genv FLUENT_AFFINITY 0 -genv I_MPI_PIN enable -genv KMP_AFFINITY disabled -n 1 /opt/crc/a/ansys/2024R1/v241/fluent/fluent24.1.0/lnamd64/3ddp_node/fluent_mpi.24.1.0 node -mpiw intel -pic shmem -mport 10.32.91.147:10.32.91.147:35397:0

-------------------------------------------------------------------------------
ID    Hostname              Core  O.S.      PID     Vendor                
-------------------------------------------------------------------------------
n0    d32cepyc190.crc.nd.e  1/64  Linux-64  175920  AMD EPYC 7543 32-Core 
host  d32cepyc190.crc.nd.e        Linux-64  175403  AMD EPYC 7543 32-Core 

MPI Option Selected: intel
-------------------------------------------------------------------------------


Initializing SGE
Done.
Cleanup script file is /tmp/1007862.1.long/worker-241760-153766/task.19/cleanup-fluent-d32cepyc190.crc.nd.edu-175403.sh
Key Behavioral Changes:
Fluent Guided Meshing Workflows: 
Workflow template files (.wft) are now saved by default whenever the mesh is saved. You can change the automatic creation of .wft files in Preferences. 
Journaling: 
When Ansys Fluent encounters an invalid input in a journal file that is being replayed, it now raises an error condition and aborts the journal processing. 
Turbulence: 
The value of kappa used in the Spalart-Allmaras model for interior terms was inconsistent with the reference publications of the model. Fluent historically used a value of 0.4187, but to produce results consistent with the published model, the value should be 0.41. This issue was first addressed in a previous Fluent version and access to the kappa value was given in the GUI while keeping the old default of 0.4187. In Fluent 2024 R1, the default value is now changed to 0.41. 
Turbomachinery: 
For Blade Film Cooling, you can now specify stationary holes on the surfaces of a moving/rotating cell zone in transient cases. 
Boundaries previously referred to as "casings" in the Turbo Topology definition are now referred to as "shrouds." 
Density-Based Solver: 
The High Speed Numerics have been updated to increase the robustness of the Roe-FDS numerical flux against shock-instabilities and the carbuncle phenomenon. This modification may produce a slight solution change for cases combining Roe-FDS and HSN. 
Multiphase Models: 
Modeling of open channel flows in conjunction with the translation moving reference frame (MRF) has been improved resulting in more accurate and stable solution. In addition, a solution methodology has been suggested to provide better stability for high-speed hull simulations. 
Parallel Processing: 
Using dynamic process spawning now requires that you manually specify the interconnect as -pethernet for shared memory or distributed memory without InfiniBand, and -pib.ofed for distributed memory over InfiniBand. 
Refer to the Ansys, Inc. Release Notes for a full listing of the new features included in Ansys Fluent 2024 R1. 
> Fast-loading "/opt/crc/a/ansys/2024R1/v241/fluent/fluent24.1.0/addons/afd/lib/hdfio.bin"
Done.
WARNING: Rank:0 Machine d32cepyc190.crc.nd.edu has 78 % of RAM filled with file buffer caches.
This can cause potential performance issues. Please use -cflush flag to flush the cache. 


Reading from d32cepyc190.crc.nd.edu:"/tmp/1007862.1.long/worker-241760-153766/task.19/case.cas.h5" in NODE0 mode ...
  Reading mesh ...
      263237 cells,     1 cell zone  ...
         263237 polyhedra cells,  zone id: 900
     1517660 faces,     5 face zones ...
            514 polygonal pressure-far-field faces,  zone id: 17
            512 polygonal pressure-far-field faces,  zone id: 18
           4017 polygonal pressure-far-field faces,  zone id: 19
          30625 polygonal wall faces,  zone id: 20
        1481992 polygonal interior faces,  zone id: 899
     1099102 nodes,     1 node zone  ...
  Done.


Building...
     mesh
  Reading boundary layer flags ...
  Done.

     materials,
     interface,
     domains,
	mixture
     zones,
	inlet
	outlet
	farfield
	launchvehicle
	interior--solid
	solid
     parallel,
Done.
Warning: Pressure far-field boundary condition can only be used with ideal gas law.
  Please change either the boundary condition type or enable ideal gas law.
  Solver cannot proceed until this is fixed.
	Warning: Pressure far-field boundary condition can only be used with ideal gas law.
  Please change either the boundary condition type or enable ideal gas law.
  Solver cannot proceed until this is fixed.
	
> adjoint/                parallel/               server/
define/                 parametric-study/       solve/
display/                plot/                   surface/
exit                    preferences/            turbo-workflow/
file/                   print-license-usage     views/
mesh/                   report/

> air is a fluid

Density
no data required.


Note: Enabling energy equation as required by material density method.

> adjoint/                parallel/               server/
define/                 parametric-study/       solve/
display/                plot/                   surface/
exit                    preferences/            turbo-workflow/
file/                   print-license-usage     views/
mesh/                   report/

> 
> adjoint/                parallel/               server/
define/                 parametric-study/       solve/
display/                plot/                   surface/
exit                    preferences/            turbo-workflow/
file/                   print-license-usage     views/
mesh/                   report/

> 
> adjoint/                parallel/               server/
define/                 parametric-study/       solve/
display/                plot/                   surface/
exit                    preferences/            turbo-workflow/
file/                   print-license-usage     views/
mesh/                   report/

> (farfield outlet inlet)

> (farfield outlet inlet)

> (farfield outlet inlet)

> adjoint/                parallel/               server/
define/                 parametric-study/       solve/
display/                plot/                   surface/
exit                    preferences/            turbo-workflow/
file/                   print-license-usage     views/
mesh/                   report/

> (launchvehicle)

> adjoint/                parallel/               server/
define/                 parametric-study/       solve/
display/                plot/                   surface/
exit                    preferences/            turbo-workflow/
file/                   print-license-usage     views/
mesh/                   report/

> 
> 
> 
> 
> 
> 
> adjoint/                parallel/               server/
define/                 parametric-study/       solve/
display/                plot/                   surface/
exit                    preferences/            turbo-workflow/
file/                   print-license-usage     views/
mesh/                   report/

> 
> 
> 
> adjoint/                parallel/               server/
define/                 parametric-study/       solve/
display/                plot/                   surface/
exit                    preferences/            turbo-workflow/
file/                   print-license-usage     views/
mesh/                   report/

> 
> 
> 
> adjoint/                parallel/               server/
define/                 parametric-study/       solve/
display/                plot/                   surface/
exit                    preferences/            turbo-workflow/
file/                   print-license-usage     views/
mesh/                   report/

> 
> adjoint/                parallel/               server/
define/                 parametric-study/       solve/
display/                plot/                   surface/
exit                    preferences/            turbo-workflow/
file/                   print-license-usage     views/
mesh/                   report/

> 
Initialize using the hybrid initialization method.

Checking case topology... 
-This case has multiple farfield bc 
-Case will be initialized with constant parameters

	iter		scalar-0

	1		1.000000e+00
	2		5.185886e-04
	3		9.080589e-05
	4		1.657329e-05
	5		2.657949e-06
	6		7.752349e-07
	7		2.285010e-07
	8		9.882655e-08
	9		4.667146e-08
	10		2.870479e-08

Hybrid initialization is done.

Note: Settings to improve the robustness of pathline and
      particle tracking have been automatically enabled.


> 
  iter  continuity  x-velocity  y-velocity  z-velocity      energy           k       omega     time/iter
     1  1.0000e+00  1.3085e-04  2.2461e-04  2.3210e-04  5.2454e-07  8.2345e-01  4.4782e-01  1:01:17  499
     2  8.5976e-01  9.2652e-05  1.6227e-04  1.3575e-04  4.3737e-07  7.2732e-01  4.1985e-01  1:00:00  498
     3  9.5425e-01  8.1318e-05  1.5058e-04  1.0417e-04  3.6099e-07  5.6924e-01  3.7938e-01  0:59:01  497
     4  1.0000e+00  7.6086e-05  2.1800e-04  7.6970e-05  5.0150e-07  3.6016e-01  3.2360e-01  0:57:53  496
     5  1.0000e+00  1.1204e-04  3.9856e-04  1.0093e-04  7.7827e-07  1.5383e-01  2.5706e-01  0:58:15  495
     6  2.1517e+00  1.6751e-04  8.5973e-04  1.4510e-04  1.6750e-06  6.5395e-02  1.8567e-01  0:58:38  494
     7  4.7270e+00  3.2085e-04  1.9700e-03  2.6751e-04  4.2775e-06  7.4135e-02  1.2652e-01  0:58:49  493
     8  1.1405e+01  8.5425e-04  4.5849e-03  6.4424e-04  2.3702e-05  1.1001e-01  1.0167e-01  0:58:58  492
     9  2.3865e+01  2.5389e-03  1.1388e-02  1.5130e-03  3.7529e-05  2.3968e-01  1.3830e-01  0:58:08  491
    10  3.7513e+01  4.5009e-03  1.6358e-02  3.1571e-03  1.3984e-04  2.9249e-01  1.6815e-01  0:57:05  490
    11  5.5611e+01  1.3121e-02  3.0837e-02  5.0550e-03  1.2640e-04  3.0331e-01  1.7606e-01  0:56:24  489

  iter  continuity  x-velocity  y-velocity  z-velocity      energy           k       omega     time/iter
    12  6.2071e+01  1.1782e-02  2.3982e-02  4.2032e-03  2.5758e-04  3.3086e-01  1.8735e-01  0:56:02  488
    13  7.3413e+01  2.7170e-02  4.2965e-02  6.5837e-03  2.4716e-04  3.3941e-01  2.1288e-01  0:55:25  487
    14  8.9483e+01  2.3360e-02  4.2911e-02  8.6159e-03  2.7996e-04  3.3578e-01  2.0981e-01  0:55:00  486
    15  8.1753e+01  2.9986e-02  5.1721e-02  7.5355e-03  3.6681e-04  3.9064e-01  2.5346e-01  0:54:24  485
    16  1.1712e+02  3.9214e-02  6.3457e-02  1.2828e-02  6.1776e-04  4.6203e-01  2.9173e-01  0:54:12  484
    17  1.1159e+02  4.4297e-02  8.2410e-02  1.0115e-02  6.6494e-04  5.2519e-01  3.5360e-01  0:54:02  483
    18  1.5301e+02  5.3804e-02  9.9580e-02  1.5957e-02  9.6545e-04  5.6851e-01  3.5891e-01  0:53:47  482
    19  1.4284e+02  6.5152e-02  1.1592e-01  1.7307e-02  1.3106e-03  5.0875e-01  3.5401e-01  0:54:06  481
    20  1.8539e+02  7.7070e-02  1.5888e-01  2.0994e-02  1.1698e-03  5.3750e-01  3.4643e-01  0:53:35  480
    21  1.6196e+02  8.5769e-02  1.3662e-01  2.1242e-02  1.1161e-03  5.1416e-01  3.4497e-01  0:53:23  479
    22  2.2436e+02  1.1035e-01  1.6628e-01  3.1961e-02  1.6137e-03  5.8328e-01  3.9142e-01  0:53:05  478

  iter  continuity  x-velocity  y-velocity  z-velocity      energy           k       omega     time/iter
    23  1.9430e+02  1.0508e-01  1.6653e-01  3.0632e-02  1.8203e-03  5.7637e-01  3.9157e-01  0:53:02  477
    24  2.3215e+02  1.4773e-01  1.9441e-01  3.7788e-02  1.5444e-03  5.4002e-01  3.6411e-01  0:52:47  476
    25  2.2269e+02  1.2635e-01  1.8747e-01  3.7330e-02  3.6552e-03  6.1948e-01  4.2723e-01  0:52:37  475
    26  2.4706e+02  1.5456e-01  2.9034e-01  5.0674e-02  2.8582e-03  7.3013e-01  4.5605e-01  0:52:10  474
    27  2.4651e+02  1.9250e-01  2.4507e-01  5.4407e-02  3.1716e-03  6.6545e-01  4.3328e-01  0:51:51  473
    28  2.5279e+02  2.1988e-01  2.5641e-01  5.6990e-02  5.6545e-03  5.8806e-01  4.1647e-01  0:51:29  472
    29  2.6899e+02  2.4732e-01  2.8080e-01  6.5602e-02  3.2430e-03  5.9679e-01  4.0586e-01  0:51:20  471
    30  2.9489e+02  2.7871e-01  3.1811e-01  7.3119e-02  4.2415e-03  1.2666e+00  9.6138e-01  0:51:20  470
    31  2.9462e+02  2.6503e-01  2.7098e-01  7.6636e-02  3.4887e-03  8.6866e-01  4.7032e-01  0:51:07  469
    32  3.0281e+02  2.9599e-01  3.2033e-01  7.5375e-02  3.4929e-03  7.0584e-01  4.7244e-01  0:51:06  468
    33  3.1874e+02  2.3879e-01  3.6765e-01  8.1199e-02  4.7969e-03  7.3844e-01  4.9266e-01  0:50:54  467

  iter  continuity  x-velocity  y-velocity  z-velocity      energy           k       omega     time/iter
    34  3.2718e+02  2.6079e-01  3.6506e-01  7.9836e-02  6.2356e-03  7.6783e-01  4.8300e-01  0:50:47  466
    35  3.4790e+02  3.4975e-01  3.2549e-01  8.9754e-02  4.1978e-03  8.6283e-01  5.9352e-01  0:50:36  465
    36  3.4682e+02  2.7763e-01  3.5219e-01  8.2995e-02  4.9536e-03  8.7808e-01  4.8778e-01  0:50:20  464
    37  3.7215e+02  2.4672e-01  3.7125e-01  8.3100e-02  4.7052e-03  8.1465e-01  4.8461e-01  0:50:11  463
    38  3.8344e+02  2.8994e-01  3.5617e-01  9.7546e-02  7.1843e-03  7.4961e-01  4.8940e-01  0:50:10  462
    39  3.9636e+02  3.3057e-01  3.1725e-01  9.0838e-02  8.0642e-03  7.3228e-01  4.6047e-01  0:50:11  461
    40  4.0096e+02  3.2192e-01  3.3735e-01  9.1929e-02  8.9998e-03  7.6482e-01  5.1216e-01  0:49:55  460
    41  4.2358e+02  3.2225e-01  3.2662e-01  8.7140e-02  6.2985e-03  7.6334e-01  5.0086e-01  0:49:53  459
    42  4.4915e+02  3.1140e-01  3.1102e-01  8.9799e-02  7.5247e-03  7.3093e-01  4.6863e-01  0:49:41  458
    43  4.3560e+02  2.8993e-01  3.3507e-01  8.9636e-02  1.0921e-02  8.0395e-01  5.3772e-01  0:49:38  457
    44  4.6787e+02  3.5010e-01  3.1102e-01  8.7584e-02  7.3000e-03  8.2103e-01  5.2088e-01  0:49:24  456

  iter  continuity  x-velocity  y-velocity  z-velocity      energy           k       omega     time/iter
    45  4.7378e+02  2.8952e-01  3.2366e-01  8.9102e-02  6.7115e-03  7.7807e-01  4.7294e-01  0:49:17  455
    46  4.8321e+02  2.6658e-01  3.1858e-01  8.8620e-02  5.7198e-03  8.6235e-01  5.8578e-01  0:49:08  454
    47  4.9500e+02  2.6998e-01  3.1896e-01  8.6620e-02  6.5249e-03  8.1535e-01  4.8060e-01  0:48:59  453
    48  5.3093e+02  2.4057e-01  3.2787e-01  8.8578e-02  8.6534e-03  6.7867e-01  4.6264e-01  0:49:01  452
    49  5.2000e+02  2.7154e-01  3.1016e-01  8.6126e-02  9.9766e-03  6.7897e-01  4.9466e-01  0:48:52  451
    50  5.7085e+02  2.8951e-01  3.2164e-01  8.9999e-02  1.3337e-02  7.8877e-01  5.6067e-01  0:48:55  450
    51  5.7893e+02  3.2907e-01  3.0353e-01  8.7149e-02  9.5018e-03  8.1141e-01  5.0657e-01  0:48:42  449
    52  5.9389e+02  3.0255e-01  3.4247e-01  9.5823e-02  7.3190e-03  8.4765e-01  5.5302e-01  0:48:45  448
    53  6.0670e+02  2.4376e-01  3.6278e-01  8.7564e-02  8.4171e-03  8.7536e-01  5.0653e-01  0:48:41  447
    54  6.2770e+02  2.8284e-01  3.4745e-01  9.8927e-02  8.1809e-03  8.1429e-01  4.8909e-01  0:48:31  446
    55  6.6932e+02  2.6017e-01  3.7221e-01  1.0080e-01  1.0420e-02  7.9580e-01  5.3102e-01  0:48:28  445

  iter  continuity  x-velocity  y-velocity  z-velocity      energy           k       omega     time/iter
    56  6.8520e+02  2.9579e-01  3.6185e-01  9.4550e-02  9.0139e-03  9.2025e-01  5.7081e-01  0:48:15  444
    57  6.9862e+02  2.5896e-01  3.6090e-01  8.9723e-02  1.1316e-02  9.1344e-01  5.0825e-01  0:48:10  443
    58  7.3766e+02  2.8771e-01  3.7037e-01  9.6230e-02  1.2428e-02  9.1121e-01  5.0892e-01  0:48:02  442
    59  7.8947e+02  3.3962e-01  3.6329e-01  1.0906e-01  9.0560e-03  8.6627e-01  5.1885e-01  0:48:02  441
    60  7.6844e+02  2.6129e-01  3.8189e-01  9.8040e-02  8.5587e-03  8.2998e-01  4.8298e-01  0:47:47  440
    61  7.9390e+02  2.9102e-01  3.9596e-01  1.0808e-01  9.7355e-03  8.9805e-01  5.4580e-01  0:47:44  439
    62  8.2481e+02  3.0250e-01  3.7054e-01  1.1083e-01  1.1198e-02  8.5961e-01  4.9485e-01  0:47:39  438
    63  8.6582e+02  2.7380e-01  3.6391e-01  1.0173e-01  1.6281e-02  8.5257e-01  5.2673e-01  0:47:30  437
    64  8.6414e+02  3.1169e-01  3.7182e-01  9.7385e-02  1.1925e-02  1.0304e+00  6.0991e-01  0:47:20  436
    65  9.3381e+02  2.7804e-01  3.8358e-01  1.0299e-01  1.2778e-02  8.7809e-01  5.0456e-01  0:47:08  435
    66  9.4954e+02  2.9057e-01  3.4256e-01  1.0885e-01  1.3062e-02  8.8714e-01  5.3271e-01  0:47:06  434

  iter  continuity  x-velocity  y-velocity  z-velocity      energy           k       omega     time/iter
    67  9.9189e+02  2.7039e-01  3.5349e-01  1.0162e-01  1.3589e-02  9.8224e-01  5.8123e-01  0:46:48  433
    68  9.8100e+02  2.6275e-01  3.8052e-01  1.0213e-01  1.0115e-02  9.0279e-01  4.9627e-01  0:46:39  432
    69  1.0422e+03  2.6825e-01  3.8360e-01  1.1371e-01  1.3029e-02  9.0803e-01  5.1932e-01  0:46:33  431
    70  1.0689e+03  3.0154e-01  3.5674e-01  1.1685e-01  1.1144e-02  8.9737e-01  5.3126e-01  0:46:17  430
    71  1.1116e+03  2.2517e-01  3.7004e-01  1.0222e-01  1.8140e-02  9.2005e-01  5.2722e-01  0:46:12  429
    72  1.0842e+03  2.8012e-01  3.7328e-01  1.0101e-01  1.3560e-02  9.6843e-01  5.5568e-01  0:46:02  428
    73  1.2131e+03  2.5200e-01  4.0707e-01  1.0965e-01  1.7989e-02  1.0096e+00  5.8174e-01  0:46:04  427
    74  1.2006e+03  2.8382e-01  3.3734e-01  1.0548e-01  1.3580e-02  9.1686e-01  5.1139e-01  0:45:54  426
    75  1.2538e+03  2.7325e-01  3.7374e-01  1.1002e-01  1.7648e-02  9.8663e-01  5.6130e-01  0:45:54  425
    76  1.2211e+03  2.6269e-01  3.8295e-01  1.0761e-01  1.3147e-02  9.3026e-01  5.0979e-01  0:45:40  424
    77  1.3772e+03  2.8753e-01  3.6867e-01  1.1177e-01  2.0353e-02  9.9681e-01  5.3771e-01  0:45:36  423

  iter  continuity  x-velocity  y-velocity  z-velocity      energy           k       omega     time/iter
    78  1.3183e+03  2.8512e-01  3.3800e-01  1.0626e-01  1.4076e-02  9.0750e-01  5.0298e-01  0:45:40  422
    79  1.3715e+03  2.3975e-01  4.0287e-01  1.0427e-01  2.0021e-02  9.8711e-01  5.4799e-01  0:45:29  421
    80  1.3365e+03  2.7673e-01  3.7273e-01  1.0890e-01  1.3314e-02  9.3272e-01  5.2277e-01  0:45:21  420
    81  1.5585e+03  2.3523e-01  3.8429e-01  1.0683e-01  2.3252e-02  1.0424e+00  5.8813e-01  0:45:15  419
    82  1.4681e+03  2.6502e-01  3.1805e-01  9.9928e-02  1.5446e-02  9.3551e-01  5.0396e-01  0:45:10  418
    83  1.5605e+03  2.8138e-01  3.7209e-01  1.1391e-01  1.8927e-02  1.1366e+00  6.1711e-01  0:45:07  417
    84  1.5174e+03  2.4897e-01  3.8570e-01  1.1468e-01  1.6456e-02  9.3081e-01  4.9626e-01  0:45:10  416
    85  1.7202e+03  2.7597e-01  3.5408e-01  1.0757e-01  1.9228e-02  9.7807e-01  5.2842e-01  0:44:55  415
    86  1.5662e+03  2.7478e-01  3.5896e-01  1.1358e-01  1.6470e-02  9.7350e-01  5.2907e-01  0:44:53  414
    87  1.6853e+03  2.7158e-01  3.9702e-01  1.1433e-01  2.1214e-02  1.0326e+00  5.4758e-01  0:44:47  413
    88  1.5840e+03  2.6058e-01  3.8817e-01  1.1429e-01  1.6011e-02  9.3263e-01  5.0063e-01  0:44:37  412

  iter  continuity  x-velocity  y-velocity  z-velocity      energy           k       omega     time/iter
    89  1.8915e+03  2.8460e-01  4.7778e-01  1.3219e-01  3.1561e-02  1.1467e+00  6.1172e-01  0:44:34  411
    90  1.6896e+03  2.6363e-01  3.5767e-01  1.1206e-01  1.7008e-02  9.2839e-01  4.9718e-01  0:44:25  410
    91  1.9163e+03  3.0579e-01  3.9067e-01  1.1966e-01  2.3801e-02  1.1984e+00  6.2299e-01  0:44:18  409
    92  1.7697e+03  2.8523e-01  3.7950e-01  1.1732e-01  1.9059e-02  9.3601e-01  4.9690e-01  0:44:05  408
    93  2.1235e+03  2.7611e-01  3.8874e-01  1.1276e-01  2.9503e-02  1.0386e+00  5.4651e-01  0:43:59  407
    94  1.8721e+03  2.5424e-01  3.5859e-01  1.1659e-01  1.9296e-02  1.0081e+00  5.4483e-01  0:43:48  406
    95  2.1817e+03  3.0875e-01  4.2328e-01  1.2901e-01  2.7999e-02  1.0488e+00  5.4906e-01  0:43:47  405
    96  1.9421e+03  2.1600e-01  3.6356e-01  1.0064e-01  1.7864e-02  9.6019e-01  5.1309e-01  0:43:40  404
    97  2.3697e+03  3.1140e-01  4.5738e-01  1.4082e-01  3.2375e-02  1.0795e+00  5.6854e-01  0:43:37  403
    98  2.1081e+03  2.3604e-01  3.3526e-01  1.0872e-01  1.8649e-02  9.3570e-01  4.9435e-01  0:43:35  402
    99  2.4100e+03  3.0595e-01  4.2208e-01  1.2829e-01  2.5170e-02  1.2343e+00  6.3685e-01  0:43:23  401

  iter  continuity  x-velocity  y-velocity  z-velocity      energy           k       omega     time/iter
   100  2.0960e+03  2.3726e-01  3.9956e-01  1.1645e-01  2.8875e-02  9.5673e-01  5.0457e-01  0:43:14  400
   101  2.5159e+03  3.0340e-01  3.9411e-01  1.1600e-01  2.5660e-02  1.0390e+00  5.4411e-01  0:43:01  399
   102  2.2297e+03  2.5688e-01  3.7205e-01  1.1897e-01  2.5706e-02  1.0321e+00  5.5585e-01  0:42:59  398
   103  2.4344e+03  2.9705e-01  4.5148e-01  1.2800e-01  2.9443e-02  1.0281e+00  5.3476e-01  0:42:44  397
   104  2.3096e+03  2.4187e-01  3.7925e-01  1.1149e-01  2.7140e-02  1.0049e+00  5.3541e-01  0:42:27  396
   105  2.8108e+03  3.4955e-01  4.6732e-01  1.4934e-01  3.8015e-02  1.0271e+00  5.4527e-01  0:42:31  395
   106  2.4099e+03  2.2424e-01  3.4830e-01  1.0473e-01  2.2023e-02  9.5744e-01  5.0478e-01  0:42:24  394
   107  2.8056e+03  2.9262e-01  4.5162e-01  1.3562e-01  3.3161e-02  1.2822e+00  6.5215e-01  0:42:26  393
   108  2.5164e+03  2.4024e-01  4.2682e-01  1.2339e-01  3.7099e-02  9.6302e-01  5.0238e-01  0:42:20  392
   109  2.8487e+03  3.3365e-01  3.7749e-01  1.2081e-01  2.8933e-02  1.0546e+00  5.4715e-01  0:42:19  391
   110  2.6837e+03  2.9031e-01  3.7994e-01  1.2609e-01  3.2121e-02  9.9370e-01  5.3030e-01  0:42:03  390

  iter  continuity  x-velocity  y-velocity  z-velocity      energy           k       omega     time/iter
   111  2.8954e+03  2.9803e-01  4.1573e-01  1.3199e-01  3.1549e-02  1.0691e+00  5.5293e-01  0:41:54  389
   112  2.6685e+03  2.2122e-01  3.6930e-01  1.0674e-01  2.7949e-02  1.0143e+00  5.3668e-01  0:41:48  388
   113  3.0572e+03  3.3830e-01  4.3162e-01  1.4521e-01  2.9842e-02  1.0286e+00  5.4671e-01  0:41:34  387
   114  2.7037e+03  2.5352e-01  3.6524e-01  1.1583e-01  2.1836e-02  9.7786e-01  5.1447e-01  0:41:30  386
   115  3.1109e+03  2.9175e-01  4.7245e-01  1.3877e-01  3.1496e-02  1.1156e+00  5.6882e-01  0:41:20  385
   116  2.9051e+03  2.3459e-01  4.1898e-01  1.1688e-01  3.1807e-02  9.9346e-01  5.1582e-01  0:41:20  384
   117  3.1204e+03  3.2378e-01  3.8289e-01  1.2399e-01  2.6358e-02  1.1359e+00  5.9161e-01  0:41:12  383
   118  3.0588e+03  2.5157e-01  3.8766e-01  1.2293e-01  2.6619e-02  9.8751e-01  5.2030e-01  0:41:08  382
   119  3.2373e+03  2.4572e-01  4.4890e-01  1.2749e-01  2.7297e-02  1.0308e+00  5.4638e-01  0:41:04  381
   120  3.0981e+03  2.7418e-01  4.3117e-01  1.2894e-01  3.0250e-02  1.0555e+00  5.6385e-01  0:41:00  380
   121  3.4001e+03  2.8655e-01  4.1373e-01  1.3415e-01  3.4347e-02  1.0149e+00  5.2913e-01  0:40:59  379

  iter  continuity  x-velocity  y-velocity  z-velocity      energy           k       omega     time/iter
   122  3.3519e+03  2.6076e-01  3.6056e-01  1.1664e-01  2.6015e-02  1.0103e+00  5.3268e-01  0:40:51  378
   123  3.4578e+03  2.2967e-01  4.3161e-01  1.2611e-01  3.4786e-02  1.0952e+00  5.7859e-01  0:40:49  377
   124  3.4129e+03  2.8108e-01  4.0210e-01  1.2395e-01  3.2517e-02  9.9213e-01  5.1932e-01  0:40:40  376
   125  3.3650e+03  3.0222e-01  3.8920e-01  1.3107e-01  3.4219e-02  1.0841e+00  5.6050e-01  0:40:36  375
   126  3.6994e+03  3.0951e-01  4.5337e-01  1.4024e-01  2.9835e-02  1.0159e+00  5.3085e-01  0:40:24  374
   127  3.6163e+03  2.2793e-01  4.1367e-01  1.1537e-01  2.6144e-02  1.0089e+00  5.2844e-01  0:40:28  373
   128  3.6187e+03  2.7541e-01  4.2579e-01  1.3318e-01  3.5469e-02  1.0454e+00  5.4405e-01  0:40:19  372
   129  3.5799e+03  3.1060e-01  3.8843e-01  1.2281e-01  2.6893e-02  1.0274e+00  5.3760e-01  0:40:14  371
   130  3.5724e+03  2.7358e-01  4.1783e-01  1.3302e-01  2.7319e-02  1.0328e+00  5.3472e-01  0:40:07  370
   131  3.8335e+03  2.7269e-01  4.6138e-01  1.3297e-01  2.9620e-02  1.0592e+00  5.5547e-01  0:39:56  369
   132  3.7599e+03  2.5367e-01  4.1577e-01  1.2889e-01  3.3364e-02  1.0117e+00  5.3218e-01  0:39:49  368

  iter  continuity  x-velocity  y-velocity  z-velocity      energy           k       omega     time/iter
   133  3.7299e+03  2.9290e-01  4.0615e-01  1.2600e-01  2.9485e-02  1.0553e+00  5.4821e-01  0:39:39  367
   134  3.9624e+03  2.9091e-01  4.5360e-01  1.3849e-01  2.9935e-02  1.0234e+00  5.3319e-01  0:39:34  366
   135  3.9911e+03  2.3085e-01  4.1467e-01  1.2610e-01  4.1548e-02  1.0665e+00  5.5467e-01  0:39:19  365
   136  4.2636e+03  2.9308e-01  4.2088e-01  1.3444e-01  3.5752e-02  1.0646e+00  5.5534e-01  0:39:16  364
   137  4.1423e+03  2.7185e-01  3.5372e-01  1.2579e-01  3.1279e-02  1.0199e+00  5.3724e-01  0:39:07  363
   138  3.9459e+03  2.6978e-01  4.1560e-01  1.3516e-01  2.9164e-02  1.0297e+00  5.3426e-01  0:39:01  362
   139  4.2626e+03  2.9775e-01  4.4152e-01  1.4636e-01  3.1340e-02  1.0780e+00  5.6244e-01  0:39:02  361
   140  4.4284e+03  2.9965e-01  3.9914e-01  1.3417e-01  2.5056e-02  9.7470e-01  5.0769e-01  0:38:48  360
   141  4.1376e+03  2.8454e-01  3.9110e-01  1.2642e-01  2.6550e-02  1.0683e+00  5.5511e-01  0:38:56  359
   142  4.2313e+03  2.9636e-01  4.6699e-01  1.5160e-01  2.7519e-02  1.0502e+00  5.4479e-01  0:38:45  358
   143  4.2255e+03  2.3609e-01  4.1990e-01  1.3244e-01  2.5397e-02  1.0195e+00  5.2754e-01  0:38:40  357

  iter  continuity  x-velocity  y-velocity  z-velocity      energy           k       omega     time/iter
   144  4.4595e+03  3.0933e-01  3.8628e-01  1.3506e-01  2.3972e-02  1.0779e+00  5.6666e-01  0:38:28  356
   145  4.3166e+03  2.4162e-01  3.9025e-01  1.2100e-01  2.5438e-02  1.0124e+00  5.2788e-01  0:38:24  355
   146  4.3021e+03  2.6546e-01  4.1100e-01  1.3141e-01  2.3520e-02  1.0280e+00  5.3466e-01  0:38:12  354
   147  4.4870e+03  2.5262e-01  4.3055e-01  1.4117e-01  3.0905e-02  1.0645e+00  5.5298e-01  0:38:07  353
   148  4.5597e+03  3.0997e-01  3.4012e-01  1.2231e-01  2.6449e-02  9.9180e-01  5.1157e-01  0:38:07  352
   149  4.6237e+03  2.7506e-01  4.3129e-01  1.3266e-01  3.0550e-02  1.0734e+00  5.5271e-01  0:37:59  351
   150  4.5124e+03  2.9130e-01  4.2084e-01  1.3673e-01  3.6874e-02  1.0408e+00  5.4878e-01  0:38:01  350
   151  4.9525e+03  2.5619e-01  4.3013e-01  1.2974e-01  4.2202e-02  1.0601e+00  5.5090e-01  0:37:48  349
   152  5.0376e+03  3.1051e-01  3.3283e-01  1.2319e-01  2.7972e-02  1.0461e+00  5.4932e-01  0:37:50  348
   153  4.9782e+03  2.5973e-01  4.5187e-01  1.3291e-01  3.5923e-02  1.0357e+00  5.4535e-01  0:37:42  347
   154  4.6551e+03  2.6901e-01  3.9911e-01  1.2800e-01  2.7276e-02  1.0231e+00  5.2979e-01  0:37:35  346

  iter  continuity  x-velocity  y-velocity  z-velocity      energy           k       omega     time/iter
   155  5.2834e+03  2.9309e-01  4.3265e-01  1.4620e-01  2.7759e-02  1.0228e+00  5.3074e-01  0:37:28  345
   156  5.0442e+03  2.8825e-01  3.4669e-01  1.2531e-01  2.3839e-02  9.9412e-01  5.1530e-01  0:37:14  344
   157  5.0964e+03  2.8697e-01  4.5714e-01  1.4770e-01  2.6950e-02  1.0934e+00  5.5908e-01  0:37:08  343
   158  4.7955e+03  2.6339e-01  4.1481e-01  1.3444e-01  3.4291e-02  1.0336e+00  5.3902e-01  0:36:52  342
   159  5.4439e+03  2.5209e-01  4.1075e-01  1.3031e-01  3.3619e-02  1.0362e+00  5.4601e-01  0:36:43  341
   160  5.2956e+03  2.9718e-01  3.5597e-01  1.2767e-01  2.5903e-02  1.0230e+00  5.3300e-01  0:36:33  340
   161  5.4134e+03  2.8312e-01  4.3534e-01  1.3418e-01  3.1858e-02  1.0646e+00  5.5418e-01  0:36:29  339
   162  4.9979e+03  2.4243e-01  4.1963e-01  1.2981e-01  3.1127e-02  1.0264e+00  5.3543e-01  0:36:22  338
   163  5.7966e+03  3.0111e-01  4.2679e-01  1.3763e-01  2.7637e-02  1.0541e+00  5.4321e-01  0:36:21  337
   164  5.4400e+03  2.9001e-01  3.5224e-01  1.2267e-01  2.1830e-02  1.0231e+00  5.3411e-01  0:36:11  336
   165  5.6965e+03  2.6619e-01  4.2549e-01  1.3430e-01  2.7185e-02  1.0180e+00  5.2786e-01  0:36:04  335

  iter  continuity  x-velocity  y-velocity  z-velocity      energy           k       omega     time/iter
   166  5.2223e+03  2.2803e-01  4.1034e-01  1.2866e-01  2.6482e-02  1.0471e+00  5.4401e-01  0:35:58  334
   167  6.2376e+03  2.9341e-01  4.6511e-01  1.4825e-01  3.2423e-02  1.0483e+00  5.4153e-01  0:35:47  333
   168  5.6964e+03  2.7855e-01  3.3883e-01  1.2358e-01  2.6095e-02  1.0192e+00  5.2700e-01  0:35:43  332
   169  6.2013e+03  2.7758e-01  4.5451e-01  1.3257e-01  3.9322e-02  1.1369e+00  5.9961e-01  0:35:32  331
   170  5.7013e+03  2.4075e-01  3.9105e-01  1.2441e-01  2.2908e-02  9.8685e-01  5.1285e-01  0:35:29  330
   171  6.3802e+03  2.6952e-01  3.9200e-01  1.3146e-01  2.6054e-02  1.0317e+00  5.3613e-01  0:34:40  329
   172  6.1326e+03  2.9445e-01  3.8478e-01  1.3252e-01  2.7167e-02  1.0014e+00  5.1777e-01  0:34:46  328
   173  6.1303e+03  2.5600e-01  4.3968e-01  1.3413e-01  3.1914e-02  1.0672e+00  5.4463e-01  0:34:42  327
   174  6.0839e+03  2.6004e-01  4.2197e-01  1.2514e-01  2.9163e-02  1.0721e+00  5.5367e-01  0:34:44  326
   175  6.9919e+03  2.8252e-01  3.7641e-01  1.2743e-01  4.0140e-02  1.0177e+00  5.2525e-01  0:34:48  325
   176  6.3345e+03  2.9402e-01  3.5018e-01  1.2594e-01  2.7573e-02  1.0486e+00  5.4794e-01  0:34:42  324

  iter  continuity  x-velocity  y-velocity  z-velocity      energy           k       omega     time/iter
   177  6.5872e+03  2.7508e-01  4.3130e-01  1.4019e-01  3.5610e-02  1.0239e+00  5.3325e-01  0:34:44  323
   178  6.4342e+03  2.4794e-01  4.2927e-01  1.2791e-01  2.9091e-02  1.0437e+00  5.3955e-01  0:34:41  322
   179  7.0318e+03  2.4961e-01  3.7519e-01  1.2760e-01  3.4708e-02  1.0004e+00  5.2088e-01  0:34:00  321
   180  6.8900e+03  2.9794e-01  3.4861e-01  1.2102e-01  2.8723e-02  1.0313e+00  5.3088e-01  0:34:00  320
   181  6.5034e+03  2.4202e-01  4.1402e-01  1.3104e-01  2.8868e-02  1.0683e+00  5.5115e-01  0:33:24  319
   182  7.0285e+03  2.6598e-01  4.3028e-01  1.3584e-01  3.3705e-02  1.1024e+00  5.8182e-01  0:33:23  318
   183  7.5247e+03  2.8015e-01  3.5325e-01  1.3130e-01  3.2224e-02  9.9480e-01  5.1337e-01  0:33:47  317
   184  7.0794e+03  2.8171e-01  3.8095e-01  1.2707e-01  3.6559e-02  1.0829e+00  5.5899e-01  0:33:10  316
   185  7.1577e+03  2.6730e-01  4.4373e-01  1.2842e-01  3.0882e-02  1.0335e+00  5.3330e-01  0:33:17  315
   186  7.3873e+03  2.5514e-01  4.3674e-01  1.3749e-01  3.3010e-02  1.0453e+00  5.4251e-01  0:33:19  314
   187  7.7796e+03  2.4229e-01  3.6629e-01  1.2524e-01  3.2699e-02  1.0286e+00  5.3152e-01  0:32:42  313

  iter  continuity  x-velocity  y-velocity  z-velocity      energy           k       omega     time/iter
   188  7.9645e+03  2.7732e-01  3.8471e-01  1.2726e-01  2.7571e-02  1.0574e+00  5.4946e-01  0:32:54  312
   189  7.2130e+03  2.2854e-01  4.0311e-01  1.3342e-01  3.1016e-02  1.0243e+00  5.2961e-01  0:32:58  311
   190  7.9671e+03  2.5950e-01  3.9201e-01  1.2901e-01  3.3530e-02  1.0584e+00  5.4469e-01  0:32:25  310
   191  8.4023e+03  2.8859e-01  3.1139e-01  1.2099e-01  2.8661e-02  9.9119e-01  5.1105e-01  0:32:34  309
   192  8.6447e+03  2.4272e-01  3.6934e-01  1.2754e-01  2.9171e-02  1.0825e+00  5.5860e-01  0:32:43  308
   193  7.5113e+03  2.1313e-01  3.6281e-01  1.2155e-01  3.0121e-02  1.0174e+00  5.2170e-01  0:32:05  307
   194  8.6478e+03  2.3591e-01  4.4248e-01  1.3784e-01  3.2691e-02  1.1159e+00  5.7406e-01  0:32:17  306
   195  8.4954e+03  2.4794e-01  3.6639e-01  1.3242e-01  2.7339e-02  1.0116e+00  5.2222e-01  0:32:21  305
   196  9.5689e+03  2.5845e-01  3.8261e-01  1.3732e-01  3.0618e-02  1.0785e+00  5.6086e-01  0:31:45  304
   197  8.4886e+03  2.0390e-01  3.8407e-01  1.2857e-01  2.8566e-02  1.0166e+00  5.2480e-01  0:31:11  303
   198  9.6378e+03  2.4201e-01  3.8309e-01  1.4124e-01  3.1610e-02  1.0773e+00  5.5613e-01  0:31:23  302

  iter  continuity  x-velocity  y-velocity  z-velocity      energy           k       omega     time/iter
   199  9.1624e+03  2.4354e-01  2.7189e-01  1.2020e-01  2.4071e-02  9.8548e-01  5.1249e-01  0:30:55  301
   200  1.0911e+04  2.2240e-01  3.0859e-01  1.1545e-01  3.4688e-02  1.0802e+00  5.5663e-01  0:31:10  300
   201  9.0610e+03  1.6129e-01  2.9476e-01  1.1048e-01  2.4018e-02  1.0107e+00  5.2171e-01  0:30:36  299
   202  1.1335e+04  2.1465e-01  3.3380e-01  1.3539e-01  3.5459e-02  1.0805e+00  5.5545e-01  0:30:52  298
   203  1.0429e+04  1.9993e-01  2.8652e-01  1.1852e-01  3.2411e-02  9.6727e-01  5.0140e-01  0:30:20  297
   204  1.1884e+04  2.4166e-01  3.6493e-01  1.4450e-01  3.6664e-02  1.1722e+00  6.0002e-01  0:30:01  296
   205  1.1543e+04  1.9520e-01  3.6786e-01  1.3738e-01  2.8715e-02  1.0159e+00  5.3045e-01  0:29:40  295
   206  1.3228e+04  2.1997e-01  3.6837e-01  1.5857e-01  3.8392e-02  1.0631e+00  5.5596e-01  0:29:31  294
   207  1.2941e+04  2.2556e-01  2.4417e-01  1.2680e-01  2.5255e-02  9.9242e-01  5.2088e-01  0:29:13  293
   208  1.4682e+04  1.7061e-01  2.5605e-01  1.2966e-01  3.1203e-02  1.0085e+00  5.2198e-01  0:29:04  292
   209  1.3970e+04  1.1970e-01  2.3054e-01  1.0370e-01  2.0661e-02  9.6770e-01  5.0618e-01  0:28:49  291

  iter  continuity  x-velocity  y-velocity  z-velocity      energy           k       omega     time/iter
   210  1.5744e+04  1.1710e-01  1.8750e-01  9.6987e-02  2.5521e-02  1.0208e+00  5.3449e-01  0:29:13  290
   211  1.4648e+04  1.1419e-01  1.3488e-01  8.0199e-02  1.2826e-02  8.6552e-01  4.5843e-01  0:28:57  289
   212  1.7171e+04  9.5341e-02  1.4722e-01  8.1867e-02  2.4335e-02  8.2556e-01  4.6947e-01  0:28:41  288
   213  1.9073e+04  1.0095e-01  1.6499e-01  1.0075e-01  2.3082e-02  8.2989e-01  4.6327e-01  0:28:29  287
   214  2.4898e+04  1.1520e-01  1.7117e-01  1.4564e-01  2.8658e-02  8.7141e-01  4.9862e-01  0:28:27  286
   215  3.1238e+04  1.2214e-01  1.8010e-01  1.9338e-01  2.1428e-02  7.4774e-01  4.4990e-01  0:28:16  285
   216  4.2061e+04  8.4091e-02  1.3913e-01  1.7969e-01  1.9188e-02  7.2254e-01  4.5338e-01  0:28:13  284
   217  5.6329e+04  5.2049e-02  7.7948e-02  1.1975e-01  1.3076e-02  6.6190e-01  4.3102e-01  0:28:02  283
   218  7.4147e+04  4.0664e-02  6.2219e-02  1.0372e-01  1.1361e-02  6.2933e-01  3.8639e-01  0:27:53  282
   219  1.0155e+05  3.1795e-02  4.9836e-02  8.9588e-02  1.1291e-02  5.1397e-01  3.6052e-01  0:27:41  281
   220  1.4371e+05  2.6628e-02  4.1182e-02  8.0107e-02  1.0942e-02  4.7617e-01  3.5774e-01  0:27:33  280

  iter  continuity  x-velocity  y-velocity  z-velocity      energy           k       omega     time/iter
   221  1.9698e+05  2.3775e-02  3.5523e-02  7.1773e-02  1.0489e-02  5.1273e-01  3.6056e-01  0:27:22  279
   222  2.6186e+05  2.4717e-02  3.7385e-02  6.9179e-02  1.1295e-02  5.6225e-01  3.6995e-01  0:27:19  278
   223  3.6082e+05  2.8312e-02  4.2178e-02  7.5628e-02  1.2134e-02  5.5672e-01  3.7948e-01  0:27:13  277

 turbulent viscosity limited to viscosity ratio of 1.000000e+05 in 24 cells 
   224  4.7223e+05  3.3010e-02  4.5529e-02  9.2005e-02  1.3535e-02  5.6164e-01  3.7307e-01  0:27:14  276

 turbulent viscosity limited to viscosity ratio of 1.000000e+05 in 362 cells 
   225  6.4319e+05  4.1494e-02  5.4622e-02  1.1971e-01  1.5654e-02  5.5662e-01  3.7692e-01  0:27:07  275

 turbulent viscosity limited to viscosity ratio of 1.000000e+05 in 1196 cells 
   226  8.8515e+05  4.8540e-02  6.4124e-02  1.5197e-01  1.6477e-02  5.4017e-01  3.7610e-01  0:27:06  274

 turbulent viscosity limited to viscosity ratio of 1.000000e+05 in 2760 cells 
   227  1.2279e+06  5.2823e-02  7.2071e-02  1.7743e-01  1.5751e-02  5.6402e-01  3.7310e-01  0:27:00  273

 turbulent viscosity limited to viscosity ratio of 1.000000e+05 in 4737 cells 
   228  1.6490e+06  5.2152e-02  6.9991e-02  1.7517e-01  1.5091e-02  5.6499e-01  3.7223e-01  0:27:00  272

 turbulent viscosity limited to viscosity ratio of 1.000000e+05 in 6748 cells 
   229  2.1022e+06  4.7832e-02  6.6091e-02  1.4868e-01  1.5282e-02  5.8803e-01  3.6097e-01  0:26:51  271

 turbulent viscosity limited to viscosity ratio of 1.000000e+05 in 8334 cells 
   230  2.5653e+06  4.3171e-02  5.7557e-02  1.2280e-01  1.6729e-02  6.5398e-01  3.5624e-01  0:26:42  270

 turbulent viscosity limited to viscosity ratio of 1.000000e+05 in 8878 cells 
   231  3.0147e+06  4.0377e-02  5.0948e-02  1.0193e-01  1.6943e-02  7.2416e-01  3.7093e-01  0:26:30  269

 turbulent viscosity limited to viscosity ratio of 1.000000e+05 in 11463 cells 

  iter  continuity  x-velocity  y-velocity  z-velocity      energy           k       omega     time/iter
   232  3.2842e+06  3.8632e-02  4.8916e-02  9.0463e-02  1.9906e-02  8.2917e-01  4.1030e-01  0:26:26  268

 turbulent viscosity limited to viscosity ratio of 1.000000e+05 in 22061 cells 
   233  3.7287e+06  4.0280e-02  4.8155e-02  8.7399e-02  2.0741e-02  8.5882e-01  4.2924e-01  0:26:18  267

 turbulent viscosity limited to viscosity ratio of 1.000000e+05 in 39470 cells 
   234  4.2735e+06  4.0922e-02  4.8775e-02  9.2379e-02  2.2033e-02  8.6867e-01  4.5200e-01  0:26:19  266

 turbulent viscosity limited to viscosity ratio of 1.000000e+05 in 55954 cells 
   235  5.2167e+06  4.3635e-02  5.1078e-02  1.0531e-01  2.2569e-02  8.0833e-01  4.4965e-01  0:26:16  265

 turbulent viscosity limited to viscosity ratio of 1.000000e+05 in 70750 cells 
   236  6.7002e+06  4.7141e-02  5.7908e-02  1.2292e-01  2.5292e-02  7.4560e-01  4.5631e-01  0:26:11  264

 turbulent viscosity limited to viscosity ratio of 1.000000e+05 in 82015 cells 
   237  9.3635e+06  5.5190e-02  7.1080e-02  1.5673e-01  2.9113e-02  6.7668e-01  4.2278e-01  0:25:58  263

 turbulent viscosity limited to viscosity ratio of 1.000000e+05 in 100851 cells 
   238  1.3610e+07  6.2137e-02  8.5874e-02  1.9156e-01  3.3815e-02  6.2166e-01  3.9446e-01  0:26:03  262

 turbulent viscosity limited to viscosity ratio of 1.000000e+05 in 118484 cells 
   239  1.9055e+07  6.2131e-02  9.1015e-02  2.0643e-01  3.6224e-02  7.4293e-01  4.3882e-01  0:25:52  261

 turbulent viscosity limited to viscosity ratio of 1.000000e+05 in 148187 cells 
   240  2.5881e+07  5.2417e-02  8.5632e-02  1.8714e-01  3.5326e-02  8.2221e-01  4.2708e-01  0:25:47  260

 turbulent viscosity limited to viscosity ratio of 1.000000e+05 in 171970 cells 
   241  2.2234e+07  4.0813e-02  7.1400e-02  1.3952e-01  3.3066e-02  9.1860e-01  4.4861e-01  0:25:35  259

 turbulent viscosity limited to viscosity ratio of 1.000000e+05 in 174304 cells 
   242  3.4132e+07  4.4577e-02  8.2220e-02  1.1730e-01  4.0275e-02  9.6482e-01  4.6262e-01  0:25:34  258

 turbulent viscosity limited to viscosity ratio of 1.000000e+05 in 170154 cells 

  iter  continuity  x-velocity  y-velocity  z-velocity      energy           k       omega     time/iter
   243  3.3941e+07  3.6678e-02  5.9303e-02  1.2081e-01  3.2427e-02  9.5391e-01  4.6401e-01  0:25:22  257

 turbulent viscosity limited to viscosity ratio of 1.000000e+05 in 178752 cells 
   244  3.5188e+07  4.0340e-02  6.5517e-02  1.0764e-01  3.2998e-02  9.5695e-01  4.7488e-01  0:25:21  256

 turbulent viscosity limited to viscosity ratio of 1.000000e+05 in 175393 cells 
   245  4.6608e+07  3.7217e-02  5.8212e-02  1.0450e-01  3.1878e-02  9.2648e-01  4.7191e-01  0:25:12  255

 turbulent viscosity limited to viscosity ratio of 1.000000e+05 in 177261 cells 
   246  5.6123e+07  4.3052e-02  6.6169e-02  1.1496e-01  3.4419e-02  9.1459e-01  4.7048e-01  0:25:08  254

 turbulent viscosity limited to viscosity ratio of 1.000000e+05 in 176973 cells 
   247  7.8295e+07  4.5385e-02  6.6622e-02  1.2830e-01  3.4253e-02  7.8199e-01  4.3641e-01  0:25:07  253

 turbulent viscosity limited to viscosity ratio of 1.000000e+05 in 183903 cells 
   248  1.0805e+08  5.5812e-02  8.3135e-02  1.4997e-01  3.9524e-02  6.9747e-01  4.2757e-01  0:24:58  252

 turbulent viscosity limited to viscosity ratio of 1.000000e+05 in 186188 cells 
   249  1.4180e+08  6.2139e-02  9.2965e-02  1.7024e-01  4.4369e-02  6.8400e-01  4.2804e-01  0:24:47  251

 turbulent viscosity limited to viscosity ratio of 1.000000e+05 in 191682 cells 
   250  1.6228e+08  6.3486e-02  1.0065e-01  1.7261e-01  4.3669e-02  8.0172e-01  4.3540e-01  0:24:46  250

 turbulent viscosity limited to viscosity ratio of 1.000000e+05 in 195609 cells 
   251  1.6128e+08  6.0483e-02  9.6044e-02  1.5893e-01  4.5776e-02  8.9537e-01  4.5964e-01  0:24:45  249

 turbulent viscosity limited to viscosity ratio of 1.000000e+05 in 200086 cells 
   252  1.8812e+08  6.2587e-02  1.0167e-01  1.5575e-01  4.3747e-02  9.2792e-01  4.5266e-01  0:24:33  248

 turbulent viscosity limited to viscosity ratio of 1.000000e+05 in 208180 cells 
   253  1.8893e+08  5.8129e-02  8.7961e-02  1.4804e-01  4.1188e-02  9.2033e-01  4.5304e-01  0:24:26  247

 turbulent viscosity limited to viscosity ratio of 1.000000e+05 in 209404 cells 

  iter  continuity  x-velocity  y-velocity  z-velocity      energy           k       omega     time/iter
   254  2.1599e+08  5.9947e-02  7.7717e-02  1.3713e-01  3.8528e-02  9.1618e-01  4.5750e-01  0:24:16  246

 turbulent viscosity limited to viscosity ratio of 1.000000e+05 in 206931 cells 
   255  2.7228e+08  5.3514e-02  7.0782e-02  1.3310e-01  4.0914e-02  9.5769e-01  4.7115e-01  0:24:11  245

 turbulent viscosity limited to viscosity ratio of 1.000000e+05 in 202870 cells 
   256  3.4843e+08  5.7285e-02  7.5926e-02  1.4255e-01  4.0981e-02  9.7483e-01  4.7447e-01  0:23:59  244

 turbulent viscosity limited to viscosity ratio of 1.000000e+05 in 201742 cells 
   257  4.8512e+08  5.8427e-02  7.4565e-02  1.4934e-01  3.8996e-02  9.4803e-01  4.5445e-01  0:23:54  243

 turbulent viscosity limited to viscosity ratio of 1.000000e+05 in 202671 cells 
   258  6.7570e+08  6.3122e-02  8.5062e-02  1.6469e-01  4.2024e-02  9.0638e-01  4.3083e-01  0:23:42  242

 absolute pressure limited to 5.000000e+10 in 1 cells on zone 900 

 turbulent viscosity limited to viscosity ratio of 1.000000e+05 in 202484 cells 
   259  9.0498e+08  6.5464e-02  9.3572e-02  1.8604e-01  4.3216e-02  8.6313e-01  4.1515e-01  0:23:40  241

 absolute pressure limited to 5.000000e+10 in 25 cells on zone 900 

 turbulent viscosity limited to viscosity ratio of 1.000000e+05 in 203733 cells 
   260  1.0536e+09  6.8916e-02  9.7419e-02  1.7455e-01  4.4647e-02  9.2927e-01  4.4662e-01  0:23:34  240

 absolute pressure limited to 5.000000e+10 in 27 cells on zone 900 

 turbulent viscosity limited to viscosity ratio of 1.000000e+05 in 208002 cells 
   261  1.1374e+09  7.2649e-02  9.9354e-02  1.6355e-01  4.3405e-02  9.4278e-01  4.5640e-01  0:23:32  239

 absolute pressure limited to 5.000000e+10 in 40 cells on zone 900 

 turbulent viscosity limited to viscosity ratio of 1.000000e+05 in 219042 cells 
   262  1.1303e+09  6.5803e-02  9.5083e-02  1.5437e-01  4.4863e-02  9.8418e-01  4.9025e-01  0:23:33  238

 absolute pressure limited to 5.000000e+10 in 67 cells on zone 900 

 turbulent viscosity limited to viscosity ratio of 1.000000e+05 in 230101 cells 
   263  1.1524e+09  6.2922e-02  1.0467e-01  1.5418e-01  4.3089e-02  9.8722e-01  4.9141e-01  0:23:28  237

 absolute pressure limited to 5.000000e+10 in 85 cells on zone 900 

 turbulent viscosity limited to viscosity ratio of 1.000000e+05 in 227482 cells 
   264  1.3205e+09  6.6011e-02  9.4786e-02  1.4223e-01  4.2326e-02  9.8965e-01  4.9057e-01  0:23:19  236

 absolute pressure limited to 5.000000e+10 in 114 cells on zone 900 

 turbulent viscosity limited to viscosity ratio of 1.000000e+05 in 223018 cells 

  iter  continuity  x-velocity  y-velocity  z-velocity      energy           k       omega     time/iter
   265  1.6300e+09  6.4486e-02  9.1814e-02  1.3771e-01  3.9386e-02  9.9652e-01  4.9460e-01  0:23:15  235

 absolute pressure limited to 5.000000e+10 in 221 cells on zone 900 

 turbulent viscosity limited to viscosity ratio of 1.000000e+05 in 218588 cells 
   266  2.1964e+09  6.0251e-02  9.3508e-02  1.4028e-01  4.0345e-02  9.9723e-01  4.9495e-01  0:23:05  234

 absolute pressure limited to 5.000000e+10 in 278 cells on zone 900 

 turbulent viscosity limited to viscosity ratio of 1.000000e+05 in 214852 cells 
   267  2.9711e+09  6.2113e-02  1.0411e-01  1.4462e-01  4.0208e-02  9.8822e-01  4.8615e-01  0:23:02  233

 absolute pressure limited to 5.000000e+10 in 359 cells on zone 900 

 turbulent viscosity limited to viscosity ratio of 1.000000e+05 in 212592 cells 
   268  3.7526e+09  6.8167e-02  1.1238e-01  1.4693e-01  3.8388e-02  9.9320e-01  4.9232e-01  0:22:54  232

 absolute pressure limited to 5.000000e+10 in 532 cells on zone 900 

 turbulent viscosity limited to viscosity ratio of 1.000000e+05 in 215554 cells 
   269  4.5230e+09  7.2284e-02  1.2390e-01  1.4952e-01  3.9717e-02  9.7608e-01  4.8228e-01  0:22:52  231

 absolute pressure limited to 5.000000e+10 in 1354 cells on zone 900 

 turbulent viscosity limited to viscosity ratio of 1.000000e+05 in 224180 cells 
   270  4.5095e+09  7.5579e-02  1.4020e-01  1.5694e-01  4.2123e-02  9.5370e-01  4.7377e-01  0:22:46  230

 absolute pressure limited to 5.000000e+10 in 30998 cells on zone 900 

 turbulent viscosity limited to viscosity ratio of 1.000000e+05 in 233172 cells 
   271  3.9074e+09  8.9584e-02  1.7069e-01  1.7854e-01  5.0423e-02  9.6705e-01  4.7777e-01  0:22:43  229

 absolute pressure limited to 5.000000e+10 in 43847 cells on zone 900 

 turbulent viscosity limited to viscosity ratio of 1.000000e+05 in 238611 cells 
   272  4.5198e+09  9.5352e-02  1.4581e-01  1.6211e-01  4.1509e-02  9.9161e-01  4.9340e-01  0:22:38  228

 absolute pressure limited to 5.000000e+10 in 54963 cells on zone 900 

 turbulent viscosity limited to viscosity ratio of 1.000000e+05 in 239476 cells 
   273  5.1081e+09  8.4730e-02  1.4399e-01  1.6581e-01  3.8949e-02  9.9570e-01  4.9605e-01  0:22:34  227

 absolute pressure limited to 5.000000e+10 in 90247 cells on zone 900 

 turbulent viscosity limited to viscosity ratio of 1.000000e+05 in 238735 cells 
   274  5.6813e+09  8.1083e-02  1.5070e-01  1.6125e-01  4.0734e-02  9.9892e-01  4.9891e-01  0:22:27  226

 absolute pressure limited to 5.000000e+10 in 245059 cells on zone 900 

 turbulent viscosity limited to viscosity ratio of 1.000000e+05 in 237068 cells 
   275  5.8500e+09  8.5692e-02  1.7307e-01  1.6655e-01  5.1475e-02  9.9923e-01  4.9908e-01  0:22:19  225

 absolute pressure limited to 5.000000e+10 in 258073 cells on zone 900 

 turbulent viscosity limited to viscosity ratio of 1.000000e+05 in 230729 cells 

  iter  continuity  x-velocity  y-velocity  z-velocity      energy           k       omega     time/iter
   276  6.1764e+09  9.2299e-02  1.8608e-01  1.5488e-01  5.1076e-02  9.9987e-01  4.9981e-01  0:22:05  224

 absolute pressure limited to 5.000000e+10 in 262289 cells on zone 900 

 turbulent viscosity limited to viscosity ratio of 1.000000e+05 in 229103 cells 
   277  7.8239e+09  8.7725e-02  1.7311e-01  1.5041e-01  5.8089e-02  1.0000e+00  4.9995e-01  0:21:57  223

 absolute pressure limited to 5.000000e+10 in 262893 cells on zone 900 

 turbulent viscosity limited to viscosity ratio of 1.000000e+05 in 227805 cells 
   278  8.7983e+09  7.9209e-02  1.7578e-01  1.5916e-01  5.3162e-02  1.0007e+00  5.0032e-01  0:21:44  222

 absolute pressure limited to 5.000000e+10 in 263042 cells on zone 900 

 turbulent viscosity limited to viscosity ratio of 1.000000e+05 in 230753 cells 
   279  9.4913e+09  7.9075e-02  1.7990e-01  1.4831e-01  4.9955e-02  9.9960e-01  4.9963e-01  0:21:37  221

 absolute pressure limited to 5.000000e+10 in 263082 cells on zone 900 

 turbulent viscosity limited to viscosity ratio of 1.000000e+05 in 236926 cells 
   280  1.2098e+10  7.5694e-02  1.8040e-01  1.5249e-01  4.4209e-02  9.9926e-01  4.9935e-01  0:21:29  220

 absolute pressure limited to 5.000000e+10 in 263119 cells on zone 900 

 turbulent viscosity limited to viscosity ratio of 1.000000e+05 in 238450 cells 
   281  1.4044e+10  7.4467e-02  1.8692e-01  1.7138e-01  4.1285e-02  9.9721e-01  4.9841e-01  0:21:30  219

 absolute pressure limited to 5.000000e+10 in 263151 cells on zone 900 

 turbulent viscosity limited to viscosity ratio of 1.000000e+05 in 237588 cells 
   282  1.5452e+10  7.2225e-02  1.8928e-01  1.7376e-01  3.6085e-02  9.9698e-01  4.9756e-01  0:21:27  218

 absolute pressure limited to 5.000000e+10 in 263139 cells on zone 900 

 turbulent viscosity limited to viscosity ratio of 1.000000e+05 in 237916 cells 
   283  1.6387e+10  6.8842e-02  1.8627e-01  1.6741e-01  2.9916e-02  9.9009e-01  4.9463e-01  0:21:29  217

 absolute pressure limited to 5.000000e+10 in 263118 cells on zone 900 

 turbulent viscosity limited to viscosity ratio of 1.000000e+05 in 238310 cells 
   284  1.5953e+10  6.3944e-02  1.7810e-01  1.6171e-01  2.6633e-02  9.8952e-01  4.9284e-01  0:21:23  216

 absolute pressure limited to 5.000000e+10 in 263096 cells on zone 900 

 turbulent viscosity limited to viscosity ratio of 1.000000e+05 in 240941 cells 
   285  1.5438e+10  6.3974e-02  1.7325e-01  1.5625e-01  2.5998e-02  9.8618e-01  4.9212e-01  0:21:22  215

 absolute pressure limited to 5.000000e+10 in 263126 cells on zone 900 

 turbulent viscosity limited to viscosity ratio of 1.000000e+05 in 245887 cells 
   286  1.5603e+10  6.6535e-02  1.7284e-01  1.6598e-01  2.5717e-02  9.9957e-01  4.9957e-01  0:21:13  214

 absolute pressure limited to 5.000000e+10 in 263133 cells on zone 900 

 turbulent viscosity limited to viscosity ratio of 1.000000e+05 in 251208 cells 

  iter  continuity  x-velocity  y-velocity  z-velocity      energy           k       omega     time/iter
   287  1.6558e+10  6.7626e-02  1.7883e-01  1.9008e-01  2.4911e-02  9.9741e-01  4.9872e-01  0:21:06  213

 absolute pressure limited to 5.000000e+10 in 263127 cells on zone 900 

 turbulent viscosity limited to viscosity ratio of 1.000000e+05 in 253392 cells 
   288  1.7876e+10  6.3258e-02  1.7618e-01  1.9634e-01  2.4545e-02  9.9912e-01  4.9910e-01  0:20:56  212

 absolute pressure limited to 5.000000e+10 in 263114 cells on zone 900 

 turbulent viscosity limited to viscosity ratio of 1.000000e+05 in 253816 cells 
   289  1.8578e+10  6.5464e-02  1.8032e-01  1.9581e-01  2.2747e-02  9.9871e-01  4.9871e-01  0:20:52  211

 absolute pressure limited to 5.000000e+10 in 263135 cells on zone 900 

 turbulent viscosity limited to viscosity ratio of 1.000000e+05 in 254024 cells 
   290  1.9580e+10  6.2885e-02  1.7942e-01  1.9476e-01  2.2194e-02  9.9708e-01  4.9801e-01  0:20:47  210

 absolute pressure limited to 5.000000e+10 in 263131 cells on zone 900 

 turbulent viscosity limited to viscosity ratio of 1.000000e+05 in 254153 cells 
   291  2.0756e+10  6.1435e-02  1.8030e-01  1.9212e-01  2.0631e-02  9.8926e-01  4.9548e-01  0:20:45  209

 absolute pressure limited to 5.000000e+10 in 263120 cells on zone 900 

 turbulent viscosity limited to viscosity ratio of 1.000000e+05 in 254342 cells 
   292  2.1006e+10  5.9456e-02  1.7259e-01  1.9170e-01  2.0182e-02  9.7265e-01  4.9076e-01  0:20:42  208

 absolute pressure limited to 5.000000e+10 in 263134 cells on zone 900 

 turbulent viscosity limited to viscosity ratio of 1.000000e+05 in 254372 cells 
   293  2.1787e+10  5.8878e-02  1.7030e-01  1.8810e-01  2.0456e-02  9.8300e-01  4.8887e-01  0:20:32  207

 absolute pressure limited to 5.000000e+10 in 263128 cells on zone 900 

 turbulent viscosity limited to viscosity ratio of 1.000000e+05 in 254738 cells 
   294  2.2115e+10  6.0436e-02  1.7324e-01  1.9457e-01  2.1347e-02  9.6994e-01  4.8534e-01  0:20:26  206

 absolute pressure limited to 5.000000e+10 in 263123 cells on zone 900 

 turbulent viscosity limited to viscosity ratio of 1.000000e+05 in 254547 cells 
   295  2.2372e+10  6.0524e-02  1.7300e-01  2.0201e-01  2.2595e-02  9.9189e-01  4.9137e-01  0:20:16  205

 absolute pressure limited to 5.000000e+10 in 263113 cells on zone 900 

 turbulent viscosity limited to viscosity ratio of 1.000000e+05 in 254896 cells 
   296  2.3253e+10  6.2685e-02  1.8109e-01  1.9990e-01  2.1573e-02  9.9375e-01  4.9322e-01  0:20:11  204

 absolute pressure limited to 5.000000e+10 in 263125 cells on zone 900 

 turbulent viscosity limited to viscosity ratio of 1.000000e+05 in 254723 cells 
   297  2.4282e+10  6.0312e-02  1.7820e-01  2.0328e-01  2.3824e-02  9.9051e-01  4.9302e-01  0:20:00  203

 absolute pressure limited to 5.000000e+10 in 263134 cells on zone 900 

 turbulent viscosity limited to viscosity ratio of 1.000000e+05 in 254981 cells 

  iter  continuity  x-velocity  y-velocity  z-velocity      energy           k       omega     time/iter
   298  2.5530e+10  6.3497e-02  1.8897e-01  2.1039e-01  2.4118e-02  9.7906e-01  4.8754e-01  0:20:02  202

 absolute pressure limited to 5.000000e+10 in 263128 cells on zone 900 

 turbulent viscosity limited to viscosity ratio of 1.000000e+05 in 254692 cells 
   299  2.7861e+10  6.2538e-02  1.9041e-01  2.1057e-01  2.2409e-02  9.8422e-01  4.8801e-01  0:20:00  201

 absolute pressure limited to 5.000000e+10 in 263109 cells on zone 900 

 turbulent viscosity limited to viscosity ratio of 1.000000e+05 in 255044 cells 
   300  2.8543e+10  6.0911e-02  1.8349e-01  2.0409e-01  2.1651e-02  9.9793e-01  4.9790e-01  0:19:57  200

 absolute pressure limited to 5.000000e+10 in 263128 cells on zone 900 

 turbulent viscosity limited to viscosity ratio of 1.000000e+05 in 254651 cells 
   301  2.9399e+10  5.8516e-02  1.7615e-01  2.0809e-01  2.4485e-02  9.9178e-01  4.9537e-01  0:19:49  199

 absolute pressure limited to 5.000000e+10 in 263124 cells on zone 900 

 turbulent viscosity limited to viscosity ratio of 1.000000e+05 in 255128 cells 
   302  3.1228e+10  5.8117e-02  1.7639e-01  2.0634e-01  2.3078e-02  9.9394e-01  4.9554e-01  0:19:43  198

 absolute pressure limited to 5.000000e+10 in 263122 cells on zone 900 

 turbulent viscosity limited to viscosity ratio of 1.000000e+05 in 254653 cells 
   303  3.1711e+10  5.4498e-02  1.7335e-01  2.0281e-01  2.6069e-02  9.9022e-01  4.9356e-01  0:19:32  197

 absolute pressure limited to 5.000000e+10 in 263116 cells on zone 900 

 turbulent viscosity limited to viscosity ratio of 1.000000e+05 in 255045 cells 
   304  3.2859e+10  5.8230e-02  1.7126e-01  2.0166e-01  2.6212e-02  9.8304e-01  4.8957e-01  0:19:27  196

 absolute pressure limited to 5.000000e+10 in 263116 cells on zone 900 

 turbulent viscosity limited to viscosity ratio of 1.000000e+05 in 254687 cells 
   305  3.4637e+10  5.7853e-02  1.7624e-01  2.1042e-01  2.6263e-02  9.9200e-01  4.9162e-01  0:19:16  195

 absolute pressure limited to 5.000000e+10 in 263125 cells on zone 900 

 turbulent viscosity limited to viscosity ratio of 1.000000e+05 in 255019 cells 
   306  3.8430e+10  5.6354e-02  1.7380e-01  2.1025e-01  2.7906e-02  9.9265e-01  4.9222e-01  0:19:13  194

 absolute pressure limited to 5.000000e+10 in 263115 cells on zone 900 

 turbulent viscosity limited to viscosity ratio of 1.000000e+05 in 254619 cells 
   307  4.1602e+10  5.5803e-02  1.7401e-01  2.0809e-01  2.7884e-02  9.9951e-01  4.9963e-01  0:19:05  193

 absolute pressure limited to 5.000000e+10 in 263115 cells on zone 900 

 turbulent viscosity limited to viscosity ratio of 1.000000e+05 in 255008 cells 
   308  4.3406e+10  5.3939e-02  1.6976e-01  2.1001e-01  2.9538e-02  9.9856e-01  4.9916e-01  0:19:06  192

 absolute pressure limited to 5.000000e+10 in 263118 cells on zone 900 

 turbulent viscosity limited to viscosity ratio of 1.000000e+05 in 254617 cells 

  iter  continuity  x-velocity  y-velocity  z-velocity      energy           k       omega     time/iter
   309  4.5872e+10  5.5294e-02  1.7666e-01  2.0673e-01  3.0561e-02  9.9564e-01  4.9806e-01  0:19:01  191

 absolute pressure limited to 5.000000e+10 in 263109 cells on zone 900 

 turbulent viscosity limited to viscosity ratio of 1.000000e+05 in 255055 cells 
   310  4.8016e+10  5.3343e-02  1.7315e-01  1.9912e-01  3.0568e-02  9.9448e-01  4.9696e-01  0:19:02  190

 absolute pressure limited to 5.000000e+10 in 263123 cells on zone 900 

 turbulent viscosity limited to viscosity ratio of 1.000000e+05 in 254583 cells 
   311  5.1184e+10  5.3683e-02  1.7783e-01  1.9493e-01  3.2967e-02  9.9736e-01  4.9784e-01  0:18:55  189

 absolute pressure limited to 5.000000e+10 in 263096 cells on zone 900 

 turbulent viscosity limited to viscosity ratio of 1.000000e+05 in 255048 cells 
   312  5.3804e+10  5.2664e-02  1.7343e-01  1.9832e-01  3.5966e-02  9.9214e-01  4.9602e-01  0:18:48  188

 absolute pressure limited to 5.000000e+10 in 263126 cells on zone 900 

 turbulent viscosity limited to viscosity ratio of 1.000000e+05 in 254588 cells 
   313  5.5437e+10  5.2875e-02  1.7949e-01  1.9865e-01  3.3859e-02  9.9686e-01  4.9719e-01  0:18:39  187

 absolute pressure limited to 5.000000e+10 in 263100 cells on zone 900 

 turbulent viscosity limited to viscosity ratio of 1.000000e+05 in 255313 cells 
   314  6.0882e+10  5.2079e-02  1.7626e-01  1.9060e-01  3.3537e-02  9.8734e-01  4.9371e-01  0:18:31  186

 absolute pressure limited to 5.000000e+10 in 263078 cells on zone 900 

 turbulent viscosity limited to viscosity ratio of 1.000000e+05 in 254905 cells 
   315  6.1456e+10  5.4889e-02  1.8651e-01  1.8364e-01  3.4116e-02  9.8206e-01  4.9034e-01  0:18:20  185

 absolute pressure limited to 5.000000e+10 in 263081 cells on zone 900 

 turbulent viscosity limited to viscosity ratio of 1.000000e+05 in 255462 cells 
   316  6.5814e+10  5.5370e-02  1.8703e-01  1.8025e-01  3.5745e-02  9.9804e-01  4.9771e-01  0:18:14  184

 absolute pressure limited to 5.000000e+10 in 263095 cells on zone 900 

 turbulent viscosity limited to viscosity ratio of 1.000000e+05 in 255117 cells 
   317  7.3920e+10  5.5839e-02  1.8645e-01  1.7497e-01  3.3766e-02  9.9548e-01  4.9628e-01  0:18:12  183

 absolute pressure limited to 5.000000e+10 in 263079 cells on zone 900 

 turbulent viscosity limited to viscosity ratio of 1.000000e+05 in 255450 cells 
   318  7.5993e+10  5.3600e-02  1.8372e-01  1.7586e-01  3.5284e-02  9.9764e-01  4.9695e-01  0:18:11  182

 absolute pressure limited to 5.000000e+10 in 263070 cells on zone 900 

 turbulent viscosity limited to viscosity ratio of 1.000000e+05 in 255182 cells 
   319  8.0249e+10  5.4032e-02  1.8444e-01  1.8174e-01  3.7034e-02  9.9677e-01  4.9655e-01  0:18:10  181

 absolute pressure limited to 5.000000e+10 in 263096 cells on zone 900 

 turbulent viscosity limited to viscosity ratio of 1.000000e+05 in 255374 cells 

  iter  continuity  x-velocity  y-velocity  z-velocity      energy           k       omega     time/iter
   320  9.1977e+10  5.4433e-02  1.8109e-01  1.8505e-01  3.5386e-02  9.9563e-01  4.9676e-01  0:18:09  180

 absolute pressure limited to 5.000000e+10 in 263060 cells on zone 900 

 turbulent viscosity limited to viscosity ratio of 1.000000e+05 in 255256 cells 
   321  9.4854e+10  5.1836e-02  1.7490e-01  1.9061e-01  3.5753e-02  9.9401e-01  4.9540e-01  0:18:01  179

 absolute pressure limited to 5.000000e+10 in 263070 cells on zone 900 

 turbulent viscosity limited to viscosity ratio of 1.000000e+05 in 255258 cells 
   322  1.0313e+11  5.1719e-02  1.7612e-01  1.8334e-01  3.5572e-02  9.9635e-01  4.9511e-01  0:17:56  178

 absolute pressure limited to 5.000000e+10 in 263098 cells on zone 900 

 turbulent viscosity limited to viscosity ratio of 1.000000e+05 in 255260 cells 
   323  1.1122e+11  5.1152e-02  1.7270e-01  1.7678e-01  3.3039e-02  9.9421e-01  4.9459e-01  0:17:45  177

 absolute pressure limited to 5.000000e+10 in 263048 cells on zone 900 

 turbulent viscosity limited to viscosity ratio of 1.000000e+05 in 255169 cells 
   324  1.1183e+11  5.1727e-02  1.7382e-01  1.7043e-01  3.2521e-02  9.9130e-01  4.9256e-01  0:17:37  176

 absolute pressure limited to 5.000000e+10 in 263049 cells on zone 900 

 turbulent viscosity limited to viscosity ratio of 1.000000e+05 in 255169 cells 
   325  1.1997e+11  5.2157e-02  1.7483e-01  1.7034e-01  3.2173e-02  9.9829e-01  4.9830e-01  0:17:26  175

 absolute pressure limited to 5.000000e+10 in 263065 cells on zone 900 

 turbulent viscosity limited to viscosity ratio of 1.000000e+05 in 255202 cells 
   326  1.2992e+11  5.1327e-02  1.7333e-01  1.6784e-01  3.3426e-02  9.9896e-01  4.9876e-01  0:17:21  174

 absolute pressure limited to 5.000000e+10 in 263054 cells on zone 900 

 turbulent viscosity limited to viscosity ratio of 1.000000e+05 in 254970 cells 
   327  1.3538e+11  5.2401e-02  1.7612e-01  1.7643e-01  3.2724e-02  9.9957e-01  4.9875e-01  0:17:14  173

 absolute pressure limited to 5.000000e+10 in 263048 cells on zone 900 

 turbulent viscosity limited to viscosity ratio of 1.000000e+05 in 255102 cells 
   328  1.4724e+11  5.3550e-02  1.8188e-01  1.7067e-01  3.2696e-02  9.9826e-01  4.9771e-01  0:17:11  172

 absolute pressure limited to 5.000000e+10 in 263076 cells on zone 900 

 turbulent viscosity limited to viscosity ratio of 1.000000e+05 in 254960 cells 
   329  1.5164e+11  5.2787e-02  1.7768e-01  1.6380e-01  3.3170e-02  9.9617e-01  4.9710e-01  0:17:04  171

 absolute pressure limited to 5.000000e+10 in 263035 cells on zone 900 

 turbulent viscosity limited to viscosity ratio of 1.000000e+05 in 255071 cells 
   330  1.6266e+11  5.2631e-02  1.8101e-01  1.7340e-01  3.5162e-02  9.9951e-01  4.9933e-01  0:17:01  170

 absolute pressure limited to 5.000000e+10 in 263071 cells on zone 900 

 turbulent viscosity limited to viscosity ratio of 1.000000e+05 in 255017 cells 

  iter  continuity  x-velocity  y-velocity  z-velocity      energy           k       omega     time/iter
   331  1.7819e+11  5.5052e-02  1.9121e-01  1.7105e-01  3.2930e-02  9.9766e-01  4.9858e-01  0:16:56  169

 absolute pressure limited to 5.000000e+10 in 263073 cells on zone 900 

 turbulent viscosity limited to viscosity ratio of 1.000000e+05 in 255213 cells 
   332  1.9044e+11  5.4910e-02  1.9003e-01  1.7430e-01  3.1941e-02  9.9402e-01  4.9732e-01  0:16:46  168

 absolute pressure limited to 5.000000e+10 in 263051 cells on zone 900 

 turbulent viscosity limited to viscosity ratio of 1.000000e+05 in 255152 cells 
   333  1.9998e+11  5.2231e-02  1.8002e-01  1.6740e-01  3.2060e-02  9.9644e-01  4.9666e-01  0:16:39  167

 absolute pressure limited to 5.000000e+10 in 263044 cells on zone 900 

 turbulent viscosity limited to viscosity ratio of 1.000000e+05 in 255250 cells 
   334  2.0252e+11  5.2023e-02  1.8126e-01  1.6356e-01  3.4018e-02  9.9644e-01  4.9649e-01  0:16:30  166

 absolute pressure limited to 5.000000e+10 in 263039 cells on zone 900 

 turbulent viscosity limited to viscosity ratio of 1.000000e+05 in 255154 cells 
   335  2.1574e+11  5.0776e-02  1.7792e-01  1.6773e-01  3.4296e-02  9.8596e-01  4.9233e-01  0:16:26  165

 absolute pressure limited to 5.000000e+10 in 263031 cells on zone 900 

 turbulent viscosity limited to viscosity ratio of 1.000000e+05 in 255283 cells 
   336  2.3549e+11  5.2164e-02  1.8414e-01  1.6411e-01  3.4518e-02  9.9502e-01  4.9536e-01  0:16:19  164

 absolute pressure limited to 5.000000e+10 in 263045 cells on zone 900 

 turbulent viscosity limited to viscosity ratio of 1.000000e+05 in 255251 cells 
   337  2.4558e+11  5.2328e-02  1.8487e-01  1.6645e-01  3.4616e-02  9.9449e-01  4.9382e-01  0:16:17  163

 absolute pressure limited to 5.000000e+10 in 263043 cells on zone 900 

 turbulent viscosity limited to viscosity ratio of 1.000000e+05 in 255241 cells 
   338  2.6449e+11  5.2268e-02  1.8425e-01  1.6302e-01  3.2507e-02  9.9488e-01  4.9279e-01  0:16:13  162

 absolute pressure limited to 5.000000e+10 in 263032 cells on zone 900 

 turbulent viscosity limited to viscosity ratio of 1.000000e+05 in 255282 cells 
   339  2.7391e+11  5.2146e-02  1.8541e-01  1.6361e-01  2.9931e-02  9.9255e-01  4.9210e-01  0:16:10  161

 absolute pressure limited to 5.000000e+10 in 263030 cells on zone 900 

 turbulent viscosity limited to viscosity ratio of 1.000000e+05 in 255316 cells 
   340  2.8835e+11  5.0657e-02  1.7971e-01  1.4912e-01  3.1397e-02  9.9315e-01  4.9150e-01  0:16:01  160

 absolute pressure limited to 5.000000e+10 in 263017 cells on zone 900 

 turbulent viscosity limited to viscosity ratio of 1.000000e+05 in 255232 cells 
   341  3.0176e+11  4.7190e-02  1.6855e-01  1.4251e-01  3.3560e-02  9.9363e-01  4.9314e-01  0:15:55  159

 absolute pressure limited to 5.000000e+10 in 263046 cells on zone 900 

 turbulent viscosity limited to viscosity ratio of 1.000000e+05 in 255195 cells 

  iter  continuity  x-velocity  y-velocity  z-velocity      energy           k       omega     time/iter
   342  3.0602e+11  4.6759e-02  1.6688e-01  1.4444e-01  3.2623e-02  9.8695e-01  4.9089e-01  0:15:46  158

 absolute pressure limited to 5.000000e+10 in 263019 cells on zone 900 

 turbulent viscosity limited to viscosity ratio of 1.000000e+05 in 255135 cells 
   343  3.2217e+11  4.8790e-02  1.7571e-01  1.5555e-01  3.2381e-02  9.8051e-01  4.8346e-01  0:15:38  157

 absolute pressure limited to 5.000000e+10 in 263026 cells on zone 900 

 turbulent viscosity limited to viscosity ratio of 1.000000e+05 in 255107 cells 
   344  3.3984e+11  4.9006e-02  1.7644e-01  1.6208e-01  3.2258e-02  9.7633e-01  4.7589e-01  0:15:33  156

 absolute pressure limited to 5.000000e+10 in 263042 cells on zone 900 

 turbulent viscosity limited to viscosity ratio of 1.000000e+05 in 255150 cells 
   345  3.6685e+11  4.9228e-02  1.7674e-01  1.5035e-01  2.9934e-02  9.9090e-01  4.8413e-01  0:15:25  155

 absolute pressure limited to 5.000000e+10 in 263043 cells on zone 900 

 turbulent viscosity limited to viscosity ratio of 1.000000e+05 in 255035 cells 
   346  3.7170e+11  4.7468e-02  1.7139e-01  1.4121e-01  2.8339e-02  9.9262e-01  4.8316e-01  0:15:22  154

 absolute pressure limited to 5.000000e+10 in 263027 cells on zone 900 

 turbulent viscosity limited to viscosity ratio of 1.000000e+05 in 255132 cells 
   347  3.7394e+11  4.6416e-02  1.6798e-01  1.3170e-01  2.9609e-02  9.7915e-01  4.7237e-01  0:15:27  153

 absolute pressure limited to 5.000000e+10 in 263014 cells on zone 900 

 turbulent viscosity limited to viscosity ratio of 1.000000e+05 in 254976 cells 
   348  3.6711e+11  4.6225e-02  1.6602e-01  1.3445e-01  3.0963e-02  9.9023e-01  4.7788e-01  0:15:23  152

 absolute pressure limited to 5.000000e+10 in 262997 cells on zone 900 

 turbulent viscosity limited to viscosity ratio of 1.000000e+05 in 255171 cells 
   349  3.6250e+11  4.7418e-02  1.7007e-01  1.4556e-01  3.2795e-02  9.9764e-01  4.9556e-01  0:15:15  151

 absolute pressure limited to 5.000000e+10 in 262975 cells on zone 900 

 turbulent viscosity limited to viscosity ratio of 1.000000e+05 in 254910 cells 
   350  3.6014e+11  5.0897e-02  1.8409e-01  1.5869e-01  3.2960e-02  9.9760e-01  4.9726e-01  0:15:08  150

 absolute pressure limited to 5.000000e+10 in 262982 cells on zone 900 

 turbulent viscosity limited to viscosity ratio of 1.000000e+05 in 255192 cells 
   351  3.7436e+11  5.3214e-02  1.9240e-01  1.6661e-01  3.0067e-02  9.8846e-01  4.9324e-01  0:14:58  149

 absolute pressure limited to 5.000000e+10 in 263011 cells on zone 900 

 turbulent viscosity limited to viscosity ratio of 1.000000e+05 in 254836 cells 
   352  3.8959e+11  5.0786e-02  1.8402e-01  1.5859e-01  2.9400e-02  9.9399e-01  4.9355e-01  0:14:48  148

 absolute pressure limited to 5.000000e+10 in 262985 cells on zone 900 

 turbulent viscosity limited to viscosity ratio of 1.000000e+05 in 255002 cells 

  iter  continuity  x-velocity  y-velocity  z-velocity      energy           k       omega     time/iter
   353  3.8871e+11  5.2213e-02  1.8873e-01  1.5428e-01  2.8387e-02  9.9950e-01  4.9947e-01  0:14:40  147

 absolute pressure limited to 5.000000e+10 in 262959 cells on zone 900 

 turbulent viscosity limited to viscosity ratio of 1.000000e+05 in 254729 cells 
   354  3.8978e+11  5.0844e-02  1.8419e-01  1.4110e-01  2.8089e-02  9.9703e-01  4.9865e-01  0:14:31  146

 absolute pressure limited to 5.000000e+10 in 262964 cells on zone 900 

 turbulent viscosity limited to viscosity ratio of 1.000000e+05 in 255120 cells 
   355  3.8015e+11  4.8943e-02  1.7772e-01  1.4390e-01  2.8216e-02  9.9872e-01  4.9893e-01  0:14:23  145

 absolute pressure limited to 5.000000e+10 in 263004 cells on zone 900 

 turbulent viscosity limited to viscosity ratio of 1.000000e+05 in 254870 cells 
   356  3.9679e+11  4.9512e-02  1.7885e-01  1.4398e-01  2.9345e-02  9.9656e-01  4.9835e-01  0:14:21  144

 absolute pressure limited to 5.000000e+10 in 262956 cells on zone 900 

 turbulent viscosity limited to viscosity ratio of 1.000000e+05 in 255032 cells 
   357  3.9279e+11  4.8188e-02  1.7473e-01  1.4439e-01  3.0834e-02  9.9934e-01  4.9937e-01  0:14:16  143

 absolute pressure limited to 5.000000e+10 in 262983 cells on zone 900 

 turbulent viscosity limited to viscosity ratio of 1.000000e+05 in 254907 cells 
   358  4.0267e+11  4.5911e-02  1.6661e-01  1.4564e-01  3.0390e-02  9.9683e-01  4.9844e-01  0:14:12  142

 absolute pressure limited to 5.000000e+10 in 262989 cells on zone 900 

 turbulent viscosity limited to viscosity ratio of 1.000000e+05 in 254885 cells 
   359  4.2047e+11  4.6167e-02  1.6776e-01  1.3376e-01  2.9947e-02  9.9648e-01  4.9753e-01  0:14:05  141

 absolute pressure limited to 5.000000e+10 in 262967 cells on zone 900 

 turbulent viscosity limited to viscosity ratio of 1.000000e+05 in 254972 cells 
   360  4.1011e+11  4.8862e-02  1.7873e-01  1.2575e-01  2.9556e-02  9.9566e-01  4.9674e-01  0:14:01  140

 absolute pressure limited to 5.000000e+10 in 262949 cells on zone 900 

 turbulent viscosity limited to viscosity ratio of 1.000000e+05 in 254908 cells 
   361  4.0076e+11  4.7472e-02  1.7277e-01  1.2147e-01  2.9588e-02  9.8760e-01  4.9375e-01  0:13:52  139

 absolute pressure limited to 5.000000e+10 in 262977 cells on zone 900 

 turbulent viscosity limited to viscosity ratio of 1.000000e+05 in 254967 cells 
   362  4.0888e+11  4.8210e-02  1.7528e-01  1.2031e-01  2.9872e-02  9.7728e-01  4.8897e-01  0:13:47  138

 absolute pressure limited to 5.000000e+10 in 262982 cells on zone 900 

 turbulent viscosity limited to viscosity ratio of 1.000000e+05 in 254971 cells 
   363  4.0747e+11  4.8723e-02  1.7700e-01  1.2386e-01  2.8853e-02  9.7071e-01  4.8027e-01  0:13:39  137

 absolute pressure limited to 5.000000e+10 in 263001 cells on zone 900 

 turbulent viscosity limited to viscosity ratio of 1.000000e+05 in 254962 cells 

  iter  continuity  x-velocity  y-velocity  z-velocity      energy           k       omega     time/iter
   364  4.1794e+11  4.6147e-02  1.6806e-01  1.3097e-01  2.6734e-02  9.9619e-01  4.9650e-01  0:13:33  136

 absolute pressure limited to 5.000000e+10 in 262973 cells on zone 900 

 turbulent viscosity limited to viscosity ratio of 1.000000e+05 in 254971 cells 
   365  4.1188e+11  4.5161e-02  1.6405e-01  1.3023e-01  2.6938e-02  9.9362e-01  4.9508e-01  0:13:26  135

 absolute pressure limited to 5.000000e+10 in 262969 cells on zone 900 

 turbulent viscosity limited to viscosity ratio of 1.000000e+05 in 255041 cells 
   366  3.8705e+11  4.7249e-02  1.7226e-01  1.3539e-01  2.7812e-02  9.8697e-01  4.9130e-01  0:13:22  134

 absolute pressure limited to 5.000000e+10 in 262985 cells on zone 900 

 turbulent viscosity limited to viscosity ratio of 1.000000e+05 in 255054 cells 
   367  3.9721e+11  4.6689e-02  1.6850e-01  1.3794e-01  2.9020e-02  9.9279e-01  4.9402e-01  0:13:15  133

 absolute pressure limited to 5.000000e+10 in 262972 cells on zone 900 

 turbulent viscosity limited to viscosity ratio of 1.000000e+05 in 255017 cells 
   368  4.0198e+11  4.8573e-02  1.7694e-01  1.4645e-01  2.9491e-02  9.9561e-01  4.9462e-01  0:13:10  132

 absolute pressure limited to 5.000000e+10 in 262949 cells on zone 900 

 turbulent viscosity limited to viscosity ratio of 1.000000e+05 in 254973 cells 
   369  3.8922e+11  4.9546e-02  1.8051e-01  1.3969e-01  3.1728e-02  9.9425e-01  4.9531e-01  0:13:07  131

 absolute pressure limited to 5.000000e+10 in 262956 cells on zone 900 

 turbulent viscosity limited to viscosity ratio of 1.000000e+05 in 254848 cells 
   370  3.8438e+11  5.0851e-02  1.8393e-01  1.3435e-01  3.2472e-02  9.9025e-01  4.9285e-01  0:13:00  130

 absolute pressure limited to 5.000000e+10 in 262974 cells on zone 900 

 turbulent viscosity limited to viscosity ratio of 1.000000e+05 in 254827 cells 
   371  3.8744e+11  5.1983e-02  1.8735e-01  1.3924e-01  2.8853e-02  9.9262e-01  4.9201e-01  0:12:54  129

 absolute pressure limited to 5.000000e+10 in 262978 cells on zone 900 

 turbulent viscosity limited to viscosity ratio of 1.000000e+05 in 254740 cells 
   372  3.9568e+11  5.2132e-02  1.8809e-01  1.3514e-01  2.7674e-02  9.7840e-01  4.8282e-01  0:12:48  128

 absolute pressure limited to 5.000000e+10 in 262977 cells on zone 900 

 turbulent viscosity limited to viscosity ratio of 1.000000e+05 in 254694 cells 
   373  3.7463e+11  5.1024e-02  1.8543e-01  1.2337e-01  2.9805e-02  9.8008e-01  4.8058e-01  0:12:42  127

 absolute pressure limited to 5.000000e+10 in 262986 cells on zone 900 

 turbulent viscosity limited to viscosity ratio of 1.000000e+05 in 254712 cells 
   374  3.7746e+11  5.1693e-02  1.8708e-01  1.2281e-01  3.1698e-02  9.7548e-01  4.7771e-01  0:12:33  126

 absolute pressure limited to 5.000000e+10 in 262984 cells on zone 900 

 turbulent viscosity limited to viscosity ratio of 1.000000e+05 in 254774 cells 

  iter  continuity  x-velocity  y-velocity  z-velocity      energy           k       omega     time/iter
   375  3.9809e+11  5.0621e-02  1.8215e-01  1.2450e-01  2.9289e-02  9.9765e-01  4.9556e-01  0:12:29  125

 absolute pressure limited to 5.000000e+10 in 262947 cells on zone 900 

 turbulent viscosity limited to viscosity ratio of 1.000000e+05 in 254719 cells 
   376  3.7504e+11  5.0158e-02  1.8109e-01  1.3346e-01  3.1678e-02  9.9038e-01  4.9149e-01  0:12:22  124

 absolute pressure limited to 5.000000e+10 in 262957 cells on zone 900 

 turbulent viscosity limited to viscosity ratio of 1.000000e+05 in 254708 cells 
   377  3.6418e+11  4.9252e-02  1.7775e-01  1.3848e-01  3.2648e-02  9.9025e-01  4.9110e-01  0:12:17  123
 temperature limited to 5.000000e+03 in 1 cells on zone 900 in domain 1
 
 absolute pressure limited to 5.000000e+10 in 262994 cells on zone 900 

 turbulent viscosity limited to viscosity ratio of 1.000000e+05 in 254677 cells 
   378  3.7838e+11  5.2645e-02  1.8920e-01  1.3678e-01  3.1496e-02  9.8414e-01  4.8814e-01  0:12:10  122
 temperature limited to 5.000000e+03 in 11 cells on zone 900 in domain 1
 
 absolute pressure limited to 5.000000e+10 in 262965 cells on zone 900 

 turbulent viscosity limited to viscosity ratio of 1.000000e+05 in 254783 cells 
   379  3.8023e+11  5.1765e-02  1.8712e-01  1.4092e-01  2.9032e-02  9.9144e-01  4.9056e-01  0:12:06  121
 temperature limited to 5.000000e+03 in 40 cells on zone 900 in domain 1
 
 absolute pressure limited to 5.000000e+10 in 262988 cells on zone 900 

 turbulent viscosity limited to viscosity ratio of 1.000000e+05 in 254796 cells 
   380  3.9595e+11  5.0638e-02  1.8301e-01  1.4502e-01  2.9940e-02  9.8189e-01  4.8389e-01  0:12:00  120
 temperature limited to 5.000000e+03 in 58 cells on zone 900 in domain 1
 
 absolute pressure limited to 5.000000e+10 in 263008 cells on zone 900 

 turbulent viscosity limited to viscosity ratio of 1.000000e+05 in 254765 cells 
   381  4.2480e+11  5.0952e-02  1.8381e-01  1.3443e-01  3.1125e-02  9.9326e-01  4.9296e-01  0:11:53  119
 temperature limited to 5.000000e+03 in 38 cells on zone 900 in domain 1
  temperature limited to 5.000000e+03 on 1 faces

 absolute pressure limited to 5.000000e+10 in 262939 cells on zone 900 

 turbulent viscosity limited to viscosity ratio of 1.000000e+05 in 254822 cells 
   382  4.0872e+11  5.0452e-02  1.8209e-01  1.3599e-01  3.2588e-02  9.9676e-01  4.9733e-01  0:11:47  118
 temperature limited to 5.000000e+03 in 83 cells on zone 900 in domain 1
  temperature limited to 5.000000e+03 on 4 faces

 absolute pressure limited to 5.000000e+10 in 262955 cells on zone 900 

 turbulent viscosity limited to viscosity ratio of 1.000000e+05 in 254570 cells 
   383  4.0115e+11  5.0348e-02  1.8126e-01  1.3853e-01  3.1973e-02  9.9574e-01  4.9662e-01  0:11:41  117
 temperature limited to 5.000000e+03 in 91 cells on zone 900 in domain 1
  temperature limited to 5.000000e+03 on 12 faces

 absolute pressure limited to 5.000000e+10 in 262960 cells on zone 900 

 turbulent viscosity limited to viscosity ratio of 1.000000e+05 in 254566 cells 
   384  4.1858e+11  4.8985e-02  1.7703e-01  1.3158e-01  3.1507e-02  9.9509e-01  4.9592e-01  0:11:34  116
 temperature limited to 5.000000e+03 in 166 cells on zone 900 in domain 1
  temperature limited to 5.000000e+03 on 24 faces

 absolute pressure limited to 5.000000e+10 in 262929 cells on zone 900 

 turbulent viscosity limited to viscosity ratio of 1.000000e+05 in 254395 cells 
   385  3.9908e+11  5.0142e-02  1.8224e-01  1.3039e-01  3.2540e-02  9.9694e-01  4.9724e-01  0:11:27  115
 temperature limited to 5.000000e+03 in 217 cells on zone 900 in domain 1
  temperature limited to 5.000000e+03 on 15 faces

 absolute pressure limited to 5.000000e+10 in 262966 cells on zone 900 

 turbulent viscosity limited to viscosity ratio of 1.000000e+05 in 254379 cells 

  iter  continuity  x-velocity  y-velocity  z-velocity      energy           k       omega     time/iter
   386  4.0158e+11  5.1476e-02  1.8556e-01  1.2433e-01  3.7264e-02  9.9575e-01  4.9697e-01  0:11:23  114
 temperature limited to 5.000000e+03 in 2123 cells on zone 900 in domain 1
 
 absolute pressure limited to 5.000000e+10 in 262951 cells on zone 900 

 turbulent viscosity limited to viscosity ratio of 1.000000e+05 in 254184 cells 
   387  4.2567e+11  5.2288e-02  1.8947e-01  1.2283e-01  3.6361e-02  9.9336e-01  4.9472e-01  0:11:16  113
 temperature limited to 5.000000e+03 in 4425 cells on zone 900 in domain 1
 
 absolute pressure limited to 5.000000e+10 in 262972 cells on zone 900 

 turbulent viscosity limited to viscosity ratio of 1.000000e+05 in 254173 cells 
[...]

 turbulent viscosity limited to viscosity ratio of 1.000000e+05 in 252935 cells 
   447  3.4424e+11  5.2656e-02  1.8676e-01  1.0180e-01  3.0149e-02  9.9353e-01  4.9406e-01  0:05:17   53
 temperature limited to 1.000000e+00 in 1 cells on zone 900 in domain 1
  temperature limited to 5.000000e+03 in 7694 cells on zone 900 in domain 1
  temperature limited to 5.000000e+03 on 1446 faces

 absolute pressure limited to 5.000000e+10 in 262836 cells on zone 900 

 turbulent viscosity limited to viscosity ratio of 1.000000e+05 in 253240 cells 
   448  3.1277e+11  5.3252e-02  1.8683e-01  1.0606e-01  3.0901e-02  9.9623e-01  4.9522e-01  0:05:10   52
 temperature limited to 1.000000e+00 in 3 cells on zone 900 in domain 1
  temperature limited to 5.000000e+03 in 8067 cells on zone 900 in domain 1
  temperature limited to 5.000000e+03 on 1586 faces

 absolute pressure limited to 5.000000e+10 in 262882 cells on zone 900 

 turbulent viscosity limited to viscosity ratio of 1.000000e+05 in 253088 cells 
   449  3.0806e+11  5.5035e-02  1.9179e-01  1.1113e-01  3.2062e-02  9.9432e-01  4.9324e-01  0:05:05   51
 temperature limited to 1.000000e+00 in 2 cells on zone 900 in domain 1
  temperature limited to 5.000000e+03 in 9135 cells on zone 900 in domain 1
  temperature limited to 5.000000e+03 on 1771 faces

 absolute pressure limited to 5.000000e+10 in 262858 cells on zone 900 

 turbulent viscosity limited to viscosity ratio of 1.000000e+05 in 253177 cells 
   450  3.1744e+11  5.6279e-02  1.9783e-01  1.1253e-01  3.2730e-02  9.9308e-01  4.9110e-01  0:04:59   50
 temperature limited to 5.000000e+03 in 9718 cells on zone 900 in domain 1
  temperature limited to 5.000000e+03 on 1988 faces

 absolute pressure limited to 5.000000e+10 in 262834 cells on zone 900 

 turbulent viscosity limited to viscosity ratio of 1.000000e+05 in 253175 cells 
   451  2.8393e+11  5.6255e-02  1.9606e-01  1.2223e-01  3.1141e-02  9.9461e-01  4.9329e-01  0:04:54   49
 temperature limited to 1.000000e+00 in 2 cells on zone 900 in domain 1
  temperature limited to 5.000000e+03 in 9384 cells on zone 900 in domain 1
  temperature limited to 5.000000e+03 on 2082 faces

 absolute pressure limited to 5.000000e+10 in 262838 cells on zone 900 

 turbulent viscosity limited to viscosity ratio of 1.000000e+05 in 253296 cells 

  iter  continuity  x-velocity  y-velocity  z-velocity      energy           k       omega     time/iter
   452  2.7717e+11  5.3290e-02  1.8369e-01  1.1821e-01  3.3615e-02  9.9120e-01  4.9204e-01  0:04:48   48
 temperature limited to 5.000000e+03 in 9448 cells on zone 900 in domain 1
  temperature limited to 5.000000e+03 on 2164 faces

 absolute pressure limited to 5.000000e+10 in 262905 cells on zone 900 

 turbulent viscosity limited to viscosity ratio of 1.000000e+05 in 253027 cells 
   453  2.7250e+11  5.3230e-02  1.8528e-01  1.0872e-01  3.2685e-02  9.9795e-01  4.9773e-01  0:04:42   47
 temperature limited to 1.000000e+00 in 3 cells on zone 900 in domain 1
  temperature limited to 5.000000e+03 in 9720 cells on zone 900 in domain 1
  temperature limited to 5.000000e+03 on 2310 faces

 absolute pressure limited to 5.000000e+10 in 262860 cells on zone 900 

 turbulent viscosity limited to viscosity ratio of 1.000000e+05 in 253408 cells 
   454  2.4988e+11  5.1778e-02  1.7920e-01  1.1066e-01  3.6630e-02  9.9426e-01  4.9600e-01  0:04:36   46
 temperature limited to 1.000000e+00 in 7 cells on zone 900 in domain 1
  temperature limited to 5.000000e+03 in 10242 cells on zone 900 in domain 1
  temperature limited to 5.000000e+03 on 2486 faces

 absolute pressure limited to 5.000000e+10 in 262921 cells on zone 900 

 turbulent viscosity limited to viscosity ratio of 1.000000e+05 in 253285 cells 
   455  2.3543e+11  5.4879e-02  1.9134e-01  1.0884e-01  3.5875e-02  9.9126e-01  4.9403e-01  0:04:29   45
 temperature limited to 1.000000e+00 in 10 cells on zone 900 in domain 1
  temperature limited to 5.000000e+03 in 1068 cells on zone 900 in domain 1
  temperature limited to 5.000000e+03 on 1416 faces

 absolute pressure limited to 5.000000e+10 in 262869 cells on zone 900 

 turbulent viscosity limited to viscosity ratio of 1.000000e+05 in 253516 cells 
   456  2.3897e+11  5.4332e-02  1.8921e-01  1.0858e-01  3.4588e-02  9.9197e-01  4.9282e-01  0:04:24   44
 temperature limited to 1.000000e+00 in 17 cells on zone 900 in domain 1
  temperature limited to 5.000000e+03 on 139 faces

 absolute pressure limited to 5.000000e+10 in 262890 cells on zone 900 

 turbulent viscosity limited to viscosity ratio of 1.000000e+05 in 253075 cells 
   457  2.3429e+11  5.3171e-02  1.8411e-01  1.1047e-01  3.7080e-02  9.8821e-01  4.8933e-01  0:04:17   43
 temperature limited to 1.000000e+00 in 14 cells on zone 900 in domain 1
  temperature limited to 5.000000e+03 in 62 cells on zone 900 in domain 1
 
 absolute pressure limited to 5.000000e+10 in 262919 cells on zone 900 

 turbulent viscosity limited to viscosity ratio of 1.000000e+05 in 253676 cells 
   458  2.2625e+11  5.5798e-02  1.9296e-01  1.0881e-01  3.2734e-02  9.9935e-01  4.9918e-01  0:04:11   42
 temperature limited to 1.000000e+00 in 23 cells on zone 900 in domain 1
 
 absolute pressure limited to 5.000000e+10 in 262903 cells on zone 900 

 turbulent viscosity limited to viscosity ratio of 1.000000e+05 in 253131 cells 
   459  2.2623e+11  5.3706e-02  1.8441e-01  1.0829e-01  3.1079e-02  9.9737e-01  4.9808e-01  0:04:06   41
 temperature limited to 1.000000e+00 in 12 cells on zone 900 in domain 1
 
 absolute pressure limited to 5.000000e+10 in 262911 cells on zone 900 

 turbulent viscosity limited to viscosity ratio of 1.000000e+05 in 253644 cells 
   460  2.0469e+11  5.0724e-02  1.7487e-01  1.0250e-01  3.2214e-02  9.9156e-01  4.9675e-01  0:04:00   40

 absolute pressure limited to 5.000000e+10 in 262943 cells on zone 900 

 turbulent viscosity limited to viscosity ratio of 1.000000e+05 in 253501 cells 
   461  1.8255e+11  5.3420e-02  1.8163e-01  1.0679e-01  3.2177e-02  9.9602e-01  4.9667e-01  0:03:55   39
 temperature limited to 1.000000e+00 in 4 cells on zone 900 in domain 1
 
 absolute pressure limited to 5.000000e+10 in 262888 cells on zone 900 

 turbulent viscosity limited to viscosity ratio of 1.000000e+05 in 253418 cells 
   462  1.8285e+11  5.5033e-02  1.8646e-01  1.0858e-01  3.0351e-02  9.9764e-01  4.9710e-01  0:03:48   38

 absolute pressure limited to 5.000000e+10 in 262889 cells on zone 900 

 turbulent viscosity limited to viscosity ratio of 1.000000e+05 in 252842 cells 

  iter  continuity  x-velocity  y-velocity  z-velocity      energy           k       omega     time/iter
   463  1.7008e+11  5.0780e-02  1.7191e-01  1.1389e-01  3.2820e-02  9.9416e-01  4.9538e-01  0:03:42   37

 absolute pressure limited to 5.000000e+10 in 262949 cells on zone 900 

 turbulent viscosity limited to viscosity ratio of 1.000000e+05 in 253346 cells 
   464  1.6252e+11  5.2015e-02  1.7311e-01  1.0855e-01  3.3738e-02  9.9603e-01  4.9639e-01  0:03:36   36

 absolute pressure limited to 5.000000e+10 in 262978 cells on zone 900 

 turbulent viscosity limited to viscosity ratio of 1.000000e+05 in 252733 cells 
   465  1.6796e+11  5.3344e-02  1.7844e-01  1.0835e-01  3.1592e-02  9.9459e-01  4.9447e-01  0:03:29   35

 absolute pressure limited to 5.000000e+10 in 262919 cells on zone 900 

 turbulent viscosity limited to viscosity ratio of 1.000000e+05 in 253023 cells 
   466  1.4918e+11  5.3196e-02  1.8046e-01  1.1085e-01  3.5123e-02  9.8648e-01  4.9022e-01  0:03:23   34

 absolute pressure limited to 5.000000e+10 in 262948 cells on zone 900 

 turbulent viscosity limited to viscosity ratio of 1.000000e+05 in 252887 cells 
   467  1.3916e+11  5.4254e-02  1.8004e-01  1.0624e-01  3.4835e-02  9.9903e-01  4.9804e-01  0:03:17   33
 temperature limited to 5.000000e+03 in 9 cells on zone 900 in domain 1
 
 absolute pressure limited to 5.000000e+10 in 262968 cells on zone 900 

 turbulent viscosity limited to viscosity ratio of 1.000000e+05 in 252852 cells 
   468  1.4501e+11  5.4647e-02  1.8351e-01  1.1046e-01  3.1554e-02  9.9712e-01  4.9647e-01  0:03:11   32
 temperature limited to 5.000000e+03 in 100 cells on zone 900 in domain 1
 
 absolute pressure limited to 5.000000e+10 in 263019 cells on zone 900 

 turbulent viscosity limited to viscosity ratio of 1.000000e+05 in 252895 cells 
   469  1.3371e+11  5.3905e-02  1.8181e-01  1.0794e-01  3.1909e-02  9.9158e-01  4.9403e-01  0:03:06   31
 temperature limited to 5.000000e+03 in 248 cells on zone 900 in domain 1
 
 absolute pressure limited to 5.000000e+10 in 262981 cells on zone 900 

 turbulent viscosity limited to viscosity ratio of 1.000000e+05 in 252909 cells 
   470  1.2577e+11  5.4535e-02  1.8478e-01  1.1027e-01  3.4841e-02  9.8821e-01  4.9088e-01  0:03:00   30
 temperature limited to 5.000000e+03 in 344 cells on zone 900 in domain 1
  temperature limited to 5.000000e+03 on 8 faces

 absolute pressure limited to 5.000000e+10 in 263011 cells on zone 900 

 turbulent viscosity limited to viscosity ratio of 1.000000e+05 in 252951 cells 
   471  1.2990e+11  5.6980e-02  1.9153e-01  1.0675e-01  3.4060e-02  9.8249e-01  4.8636e-01  0:02:54   29
 temperature limited to 5.000000e+03 in 622 cells on zone 900 in domain 1
  temperature limited to 5.000000e+03 on 36 faces

 absolute pressure limited to 5.000000e+10 in 262962 cells on zone 900 

 turbulent viscosity limited to viscosity ratio of 1.000000e+05 in 253281 cells 
   472  1.1641e+11  5.5909e-02  1.8713e-01  1.1389e-01  3.0933e-02  9.9577e-01  4.9451e-01  0:02:48   28
 temperature limited to 5.000000e+03 in 391 cells on zone 900 in domain 1
  temperature limited to 5.000000e+03 on 25 faces

 absolute pressure limited to 5.000000e+10 in 263019 cells on zone 900 

 turbulent viscosity limited to viscosity ratio of 1.000000e+05 in 252560 cells 
   473  1.1089e+11  5.5411e-02  1.8604e-01  1.0740e-01  3.2419e-02  9.9679e-01  4.9600e-01  0:02:42   27
 temperature limited to 5.000000e+03 in 619 cells on zone 900 in domain 1
  temperature limited to 5.000000e+03 on 23 faces

 absolute pressure limited to 5.000000e+10 in 263041 cells on zone 900 

 turbulent viscosity limited to viscosity ratio of 1.000000e+05 in 252861 cells 

  iter  continuity  x-velocity  y-velocity  z-velocity      energy           k       omega     time/iter
   474  1.1586e+11  5.6513e-02  1.8947e-01  1.1009e-01  3.0380e-02  9.9122e-01  4.9268e-01  0:02:36   26
 temperature limited to 5.000000e+03 in 206 cells on zone 900 in domain 1
  temperature limited to 5.000000e+03 on 21 faces

 absolute pressure limited to 5.000000e+10 in 263031 cells on zone 900 

 turbulent viscosity limited to viscosity ratio of 1.000000e+05 in 252569 cells 
   475  1.0554e+11  5.5071e-02  1.8594e-01  1.0559e-01  2.9829e-02  9.9265e-01  4.9168e-01  0:02:29   25
 temperature limited to 5.000000e+03 in 439 cells on zone 900 in domain 1
 
 absolute pressure limited to 5.000000e+10 in 263034 cells on zone 900 

 turbulent viscosity limited to viscosity ratio of 1.000000e+05 in 252844 cells 
   476  9.9514e+10  5.3339e-02  1.7780e-01  1.0401e-01  2.8985e-02  9.9663e-01  4.9512e-01  0:02:22   24
 temperature limited to 5.000000e+03 in 644 cells on zone 900 in domain 1
  temperature limited to 5.000000e+03 on 5 faces

 absolute pressure limited to 5.000000e+10 in 263036 cells on zone 900 

 turbulent viscosity limited to viscosity ratio of 1.000000e+05 in 252772 cells 
   477  9.7439e+10  5.2755e-02  1.7736e-01  1.0128e-01  2.9074e-02  9.9881e-01  4.9844e-01  0:02:16   23
 temperature limited to 5.000000e+03 in 715 cells on zone 900 in domain 1
  temperature limited to 5.000000e+03 on 63 faces

 absolute pressure limited to 5.000000e+10 in 263034 cells on zone 900 

 turbulent viscosity limited to viscosity ratio of 1.000000e+05 in 253413 cells 
   478  8.8420e+10  5.2278e-02  1.7575e-01  1.0694e-01  3.3126e-02  9.9776e-01  4.9886e-01  0:02:11   22
 temperature limited to 5.000000e+03 in 199 cells on zone 900 in domain 1
  temperature limited to 5.000000e+03 on 71 faces

 absolute pressure limited to 5.000000e+10 in 263003 cells on zone 900 

 turbulent viscosity limited to viscosity ratio of 1.000000e+05 in 253338 cells 
   479  8.5472e+10  5.6402e-02  1.8821e-01  1.1041e-01  3.2777e-02  9.9397e-01  4.9801e-01  0:02:05   21
 temperature limited to 5.000000e+03 in 31 cells on zone 900 in domain 1
  temperature limited to 5.000000e+03 on 25 faces

 absolute pressure limited to 5.000000e+10 in 263069 cells on zone 900 

 turbulent viscosity limited to viscosity ratio of 1.000000e+05 in 253870 cells 
   480  9.0038e+10  5.7966e-02  1.8828e-01  1.1803e-01  3.0221e-02  9.8921e-01  4.9544e-01  0:02:00   20
 temperature limited to 5.000000e+03 in 34 cells on zone 900 in domain 1
  temperature limited to 5.000000e+03 on 3 faces

 absolute pressure limited to 5.000000e+10 in 263046 cells on zone 900 

 turbulent viscosity limited to viscosity ratio of 1.000000e+05 in 253607 cells 
   481  8.2693e+10  5.6103e-02  1.8400e-01  1.1735e-01  2.9367e-02  9.9965e-01  4.9955e-01  0:01:54   19
 temperature limited to 5.000000e+03 in 369 cells on zone 900 in domain 1
 
 absolute pressure limited to 5.000000e+10 in 263031 cells on zone 900 

 turbulent viscosity limited to viscosity ratio of 1.000000e+05 in 253925 cells 
   482  7.4679e+10  5.6721e-02  1.8677e-01  1.2203e-01  3.0095e-02  9.9770e-01  4.9878e-01  0:01:47   18
 temperature limited to 5.000000e+03 in 629 cells on zone 900 in domain 1
 
 absolute pressure limited to 5.000000e+10 in 263060 cells on zone 900 

 turbulent viscosity limited to viscosity ratio of 1.000000e+05 in 253764 cells 
   483  8.1585e+10  5.4459e-02  1.7605e-01  1.1754e-01  2.8681e-02  9.9590e-01  4.9761e-01  0:01:41   17
 temperature limited to 5.000000e+03 in 675 cells on zone 900 in domain 1
  temperature limited to 5.000000e+03 on 13 faces

 absolute pressure limited to 5.000000e+10 in 263045 cells on zone 900 

 turbulent viscosity limited to viscosity ratio of 1.000000e+05 in 253834 cells 
   484  7.6890e+10  5.3177e-02  1.7141e-01  1.1967e-01  2.9399e-02  9.9235e-01  4.9635e-01  0:01:35   16
 temperature limited to 5.000000e+03 in 632 cells on zone 900 in domain 1
  temperature limited to 5.000000e+03 on 78 faces

 absolute pressure limited to 5.000000e+10 in 263056 cells on zone 900 

 turbulent viscosity limited to viscosity ratio of 1.000000e+05 in 253669 cells 

  iter  continuity  x-velocity  y-velocity  z-velocity      energy           k       omega     time/iter
   485  7.0576e+10  5.4518e-02  1.7505e-01  1.2450e-01  3.1403e-02  9.9347e-01  4.9554e-01  0:01:29   15
 temperature limited to 5.000000e+03 in 240 cells on zone 900 in domain 1
  temperature limited to 5.000000e+03 on 96 faces

 absolute pressure limited to 5.000000e+10 in 263073 cells on zone 900 

 turbulent viscosity limited to viscosity ratio of 1.000000e+05 in 253587 cells 
   486  7.1657e+10  5.5671e-02  1.7795e-01  1.2841e-01  3.0107e-02  9.9726e-01  4.9749e-01  0:01:23   14
 temperature limited to 5.000000e+03 in 770 cells on zone 900 in domain 1
  temperature limited to 5.000000e+03 on 85 faces

 absolute pressure limited to 5.000000e+10 in 263040 cells on zone 900 

 turbulent viscosity limited to viscosity ratio of 1.000000e+05 in 253509 cells 
   487  6.7098e+10  5.8793e-02  1.8525e-01  1.2822e-01  3.2522e-02  9.9231e-01  4.9589e-01  0:01:17   13
 temperature limited to 5.000000e+03 on 49 faces

 absolute pressure limited to 5.000000e+10 in 263053 cells on zone 900 

 turbulent viscosity limited to viscosity ratio of 1.000000e+05 in 253444 cells 
   488  6.3185e+10  5.9599e-02  1.8784e-01  1.2622e-01  3.5281e-02  9.9026e-01  4.9260e-01  0:01:12   12
 temperature limited to 5.000000e+03 in 103 cells on zone 900 in domain 1
 
 absolute pressure limited to 5.000000e+10 in 263059 cells on zone 900 

 turbulent viscosity limited to viscosity ratio of 1.000000e+05 in 253577 cells 
   489  6.3939e+10  5.9994e-02  1.8670e-01  1.2538e-01  3.2475e-02  9.7660e-01  4.8579e-01  0:01:06   11

 absolute pressure limited to 5.000000e+10 in 263026 cells on zone 900 

 turbulent viscosity limited to viscosity ratio of 1.000000e+05 in 253696 cells 
   490  6.2135e+10  5.6557e-02  1.7757e-01  1.3025e-01  3.1562e-02  9.9983e-01  4.9967e-01  0:01:00   10
 temperature limited to 5.000000e+03 in 8 cells on zone 900 in domain 1
 
 absolute pressure limited to 5.000000e+10 in 263059 cells on zone 900 

 turbulent viscosity limited to viscosity ratio of 1.000000e+05 in 253671 cells 
   491  6.2725e+10  5.7278e-02  1.7872e-01  1.2895e-01  3.1203e-02  9.9926e-01  4.9931e-01  0:00:54    9
 temperature limited to 5.000000e+03 in 122 cells on zone 900 in domain 1
 
 absolute pressure limited to 5.000000e+10 in 263069 cells on zone 900 

 turbulent viscosity limited to viscosity ratio of 1.000000e+05 in 253831 cells 
   492  6.2867e+10  5.5266e-02  1.6818e-01  1.2273e-01  2.9686e-02  9.9671e-01  4.9839e-01  0:00:48    8
 temperature limited to 5.000000e+03 in 64 cells on zone 900 in domain 1
 
 absolute pressure limited to 5.000000e+10 in 263041 cells on zone 900 

 turbulent viscosity limited to viscosity ratio of 1.000000e+05 in 253701 cells 
   493  5.6714e+10  5.3755e-02  1.6638e-01  1.2423e-01  2.9046e-02  9.9467e-01  4.9762e-01  0:00:42    7
 temperature limited to 5.000000e+03 in 162 cells on zone 900 in domain 1
 
 absolute pressure limited to 5.000000e+10 in 263075 cells on zone 900 

 turbulent viscosity limited to viscosity ratio of 1.000000e+05 in 254143 cells 
   494  5.4649e+10  5.5416e-02  1.6715e-01  1.2551e-01  2.8135e-02  9.8704e-01  4.9493e-01  0:00:36    6

 absolute pressure limited to 5.000000e+10 in 263075 cells on zone 900 

 turbulent viscosity limited to viscosity ratio of 1.000000e+05 in 254174 cells 
   495  5.5311e+10  5.6135e-02  1.7015e-01  1.1952e-01  2.6655e-02  9.7977e-01  4.9084e-01  0:00:30    5
 temperature limited to 5.000000e+03 in 141 cells on zone 900 in domain 1
 
 absolute pressure limited to 5.000000e+10 in 263033 cells on zone 900 

 turbulent viscosity limited to viscosity ratio of 1.000000e+05 in 254507 cells 

  iter  continuity  x-velocity  y-velocity  z-velocity      energy           k       omega     time/iter
   496  5.0490e+10  5.3826e-02  1.6241e-01  1.1761e-01  2.9603e-02  9.5322e-01  4.8350e-01  0:00:24    4
 temperature limited to 5.000000e+03 in 214 cells on zone 900 in domain 1
 
 absolute pressure limited to 5.000000e+10 in 263079 cells on zone 900 

 turbulent viscosity limited to viscosity ratio of 1.000000e+05 in 254435 cells 
   497  4.7617e+10  5.6879e-02  1.6842e-01  1.3036e-01  3.1619e-02  9.9902e-01  4.9865e-01  0:00:18    3
 temperature limited to 5.000000e+03 in 386 cells on zone 900 in domain 1
  temperature limited to 5.000000e+03 on 3 faces

 absolute pressure limited to 5.000000e+10 in 263105 cells on zone 900 

 turbulent viscosity limited to viscosity ratio of 1.000000e+05 in 254847 cells 
   498  5.0193e+10  6.0085e-02  1.8137e-01  1.4267e-01  2.8832e-02  9.9869e-01  4.9873e-01  0:00:12    2
 temperature limited to 5.000000e+03 in 495 cells on zone 900 in domain 1
  temperature limited to 5.000000e+03 on 19 faces

 absolute pressure limited to 5.000000e+10 in 263071 cells on zone 900 

 turbulent viscosity limited to viscosity ratio of 1.000000e+05 in 254657 cells 
   499  5.0818e+10  6.0657e-02  1.8754e-01  1.5171e-01  2.7657e-02  9.9513e-01  4.9731e-01  0:00:06    1
 temperature limited to 5.000000e+03 in 584 cells on zone 900 in domain 1
  temperature limited to 5.000000e+03 on 59 faces

 absolute pressure limited to 5.000000e+10 in 263078 cells on zone 900 

 turbulent viscosity limited to viscosity ratio of 1.000000e+05 in 254992 cells 
   500  4.7621e+10  6.1887e-02  1.8900e-01  1.4284e-01  2.8426e-02  9.9108e-01  4.9486e-01  0:00:00    0

> Halting due to end of file on input.
Auto-Transcript Stop Time:  02:19:41, 30 Nov 2024 
Total Transcript Time: 52 Minute 2 Second.

Automatic transcript closed.
