/opt/crc/a/ansys/2024R1/v241/fluent/fluent24.1.0/bin/fluent -r24.1.0 3ddp -t1 -g
/opt/crc/a/ansys/2024R1/v241/fluent/fluent24.1.0/cortex/lnamd64/cortex.24.1.0 -f fluent -g (fluent "3ddp -pshmem  -host -r24.1.0 -t1 -mpi=intel -path/opt/crc/a/ansys/2024R1/v241/fluent -ssh")

Opening input/output transcript to file "/tmp/1007947.1.long/worker-241760-997417/task.7/fluent-20241130-021342-1009209.trn".
Auto-Transcript Start Time:  02:13:42, 30 Nov 2024 
/opt/crc/a/ansys/2024R1/v241/fluent/fluent24.1.0/bin/fluent -r24.1.0 3ddp -pshmem -host -t1 -mpi=intel -path/opt/crc/a/ansys/2024R1/v241/fluent -ssh -cx d32cepyc232.crc.nd.edu:39801:34519
Starting /opt/crc/a/ansys/2024R1/v241/fluent/fluent24.1.0/lnamd64/3ddp_host/fluent.24.1.0 host -cx d32cepyc232.crc.nd.edu:39801:34519 "(list (rpsetvar (QUOTE parallel/function) "fluent 3ddp -flux -node -r24.1.0 -t1 -pshmem -mpi=intel -ssh") (rpsetvar (QUOTE parallel/rhost) "") (rpsetvar (QUOTE parallel/ruser) "") (rpsetvar (QUOTE parallel/nprocs_string) "1") (rpsetvar (QUOTE parallel/auto-spawn?) #t) (rpsetvar (QUOTE parallel/trace-level) 0) (rpsetvar (QUOTE parallel/remote-shell) 1) (rpsetvar (QUOTE parallel/path) "/opt/crc/a/ansys/2024R1/v241/fluent") (rpsetvar (QUOTE parallel/hostsfile) "") (rpsetvar (QUOTE gpuapp/devices) ""))"

              Welcome to ANSYS Fluent 2024 R1

              Copyright 1987-2024 ANSYS, Inc. All Rights Reserved.
              Unauthorized use, distribution or duplication is prohibited.
              This product is subject to U.S. laws governing export and re-export.
              For full Legal Notice, see documentation.

Build Time: Nov 22 2023 10:07:25 EST  Build Id: 10184  
 
Connected License Server List:	7504@linux5-lic.crc.nd.edu

*********************************************
Info: Your license enables 4-way parallel execution.
For faster simulations, please start the application with the appropriate parallel options.
*********************************************


     --------------------------------------------------------------
     This is an academic version of ANSYS FLUENT. Usage of this product
     license is limited to the terms and conditions specified in your ANSYS
     license form, additional terms section.
     --------------------------------------------------------------
Host spawning Node 0 on machine "d32cepyc232.crc.nd.edu" (unix).
/opt/crc/a/ansys/2024R1/v241/fluent/fluent24.1.0/bin/fluent -r24.1.0 3ddp -flux -node -t1 -pshmem -mpi=intel -ssh -mport 10.32.91.231:10.32.91.231:44999:0
Starting /opt/crc/a/ansys/2024R1/v241/fluent/fluent24.1.0/multiport/mpi/lnamd64/intel2021/bin/mpirun --rsh=ssh -f /tmp/fluent-appfile.etracey.1009611 -genv I_MPI_FABRICS shm -genv FLUENT_ARCH lnamd64 -genv I_MPI_DEBUG 0 -genv I_MPI_ADJUST_GATHERV 3 -genv I_MPI_ADJUST_ALLREDUCE 2 -genv I_MPI_PLATFORM auto -genv PYTHONHOME /opt/crc/a/ansys/2024R1/v241/fluent/fluent24.1.0/../../commonfiles/CPython/3_10/linx64/Release/python -genv FLUENT_PROD_DIR /opt/crc/a/ansys/2024R1/v241/fluent/fluent24.1.0 -genv FLUENT_AFFINITY 0 -genv I_MPI_PIN enable -genv KMP_AFFINITY disabled -n 1 /opt/crc/a/ansys/2024R1/v241/fluent/fluent24.1.0/lnamd64/3ddp_node/fluent_mpi.24.1.0 node -mpiw intel -pic shmem -mport 10.32.91.231:10.32.91.231:44999:0

-------------------------------------------------------------------------------
ID    Hostname              Core  O.S.      PID      Vendor                
-------------------------------------------------------------------------------
n0    d32cepyc232.crc.nd.e  1/64  Linux-64  1009662  AMD EPYC 7543 32-Core 
host  d32cepyc232.crc.nd.e        Linux-64  1009406  AMD EPYC 7543 32-Core 

MPI Option Selected: intel
-------------------------------------------------------------------------------


Initializing SGE
Done.
Cleanup script file is /tmp/1007947.1.long/worker-241760-997417/task.7/cleanup-fluent-d32cepyc232.crc.nd.edu-1009406.sh
Key Behavioral Changes:
Fluent Guided Meshing Workflows: 
Workflow template files (.wft) are now saved by default whenever the mesh is saved. You can change the automatic creation of .wft files in Preferences. 
Journaling: 
When Ansys Fluent encounters an invalid input in a journal file that is being replayed, it now raises an error condition and aborts the journal processing. 
Turbulence: 
The value of kappa used in the Spalart-Allmaras model for interior terms was inconsistent with the reference publications of the model. Fluent historically used a value of 0.4187, but to produce results consistent with the published model, the value should be 0.41. This issue was first addressed in a previous Fluent version and access to the kappa value was given in the GUI while keeping the old default of 0.4187. In Fluent 2024 R1, the default value is now changed to 0.41. 
Turbomachinery: 
For Blade Film Cooling, you can now specify stationary holes on the surfaces of a moving/rotating cell zone in transient cases. 
Boundaries previously referred to as "casings" in the Turbo Topology definition are now referred to as "shrouds." 
Density-Based Solver: 
The High Speed Numerics have been updated to increase the robustness of the Roe-FDS numerical flux against shock-instabilities and the carbuncle phenomenon. This modification may produce a slight solution change for cases combining Roe-FDS and HSN. 
Multiphase Models: 
Modeling of open channel flows in conjunction with the translation moving reference frame (MRF) has been improved resulting in more accurate and stable solution. In addition, a solution methodology has been suggested to provide better stability for high-speed hull simulations. 
Parallel Processing: 
Using dynamic process spawning now requires that you manually specify the interconnect as -pethernet for shared memory or distributed memory without InfiniBand, and -pib.ofed for distributed memory over InfiniBand. 
Refer to the Ansys, Inc. Release Notes for a full listing of the new features included in Ansys Fluent 2024 R1. 
> Fast-loading "/opt/crc/a/ansys/2024R1/v241/fluent/fluent24.1.0/addons/afd/lib/hdfio.bin"
Done.
WARNING: Rank:0 Machine d32cepyc232.crc.nd.edu has 65 % of RAM filled with file buffer caches.
This can cause potential performance issues. Please use -cflush flag to flush the cache. 


Reading from d32cepyc232.crc.nd.edu:"/tmp/1007947.1.long/worker-241760-997417/task.7/case.cas.h5" in NODE0 mode ...
  Reading mesh ...
      263237 cells,     1 cell zone  ...
         263237 polyhedra cells,  zone id: 900
     1517660 faces,     5 face zones ...
            514 polygonal pressure-far-field faces,  zone id: 17
            512 polygonal pressure-far-field faces,  zone id: 18
           4017 polygonal pressure-far-field faces,  zone id: 19
          30625 polygonal wall faces,  zone id: 20
        1481992 polygonal interior faces,  zone id: 899
     1099102 nodes,     1 node zone  ...
  Done.


Building...
     mesh
  Reading boundary layer flags ...
  Done.

     materials,
     interface,
     domains,
	mixture
     zones,
	inlet
	outlet
	farfield
	launchvehicle
	interior--solid
	solid
     parallel,
Done.
Warning: Pressure far-field boundary condition can only be used with ideal gas law.
  Please change either the boundary condition type or enable ideal gas law.
  Solver cannot proceed until this is fixed.
	Warning: Pressure far-field boundary condition can only be used with ideal gas law.
  Please change either the boundary condition type or enable ideal gas law.
  Solver cannot proceed until this is fixed.
	
> adjoint/                parallel/               server/
define/                 parametric-study/       solve/
display/                plot/                   surface/
exit                    preferences/            turbo-workflow/
file/                   print-license-usage     views/
mesh/                   report/

> air is a fluid

Density
no data required.


Note: Enabling energy equation as required by material density method.

> adjoint/                parallel/               server/
define/                 parametric-study/       solve/
display/                plot/                   surface/
exit                    preferences/            turbo-workflow/
file/                   print-license-usage     views/
mesh/                   report/

> 
> adjoint/                parallel/               server/
define/                 parametric-study/       solve/
display/                plot/                   surface/
exit                    preferences/            turbo-workflow/
file/                   print-license-usage     views/
mesh/                   report/

> 
> adjoint/                parallel/               server/
define/                 parametric-study/       solve/
display/                plot/                   surface/
exit                    preferences/            turbo-workflow/
file/                   print-license-usage     views/
mesh/                   report/

> (farfield outlet inlet)

> (farfield outlet inlet)

> (farfield outlet inlet)

> adjoint/                parallel/               server/
define/                 parametric-study/       solve/
display/                plot/                   surface/
exit                    preferences/            turbo-workflow/
file/                   print-license-usage     views/
mesh/                   report/

> (launchvehicle)

> adjoint/                parallel/               server/
define/                 parametric-study/       solve/
display/                plot/                   surface/
exit                    preferences/            turbo-workflow/
file/                   print-license-usage     views/
mesh/                   report/

> 
> 
> 
> 
> 
> 
> adjoint/                parallel/               server/
define/                 parametric-study/       solve/
display/                plot/                   surface/
exit                    preferences/            turbo-workflow/
file/                   print-license-usage     views/
mesh/                   report/

> 
> 
> 
> adjoint/                parallel/               server/
define/                 parametric-study/       solve/
display/                plot/                   surface/
exit                    preferences/            turbo-workflow/
file/                   print-license-usage     views/
mesh/                   report/

> 
> 
> 
> adjoint/                parallel/               server/
define/                 parametric-study/       solve/
display/                plot/                   surface/
exit                    preferences/            turbo-workflow/
file/                   print-license-usage     views/
mesh/                   report/

> 
> adjoint/                parallel/               server/
define/                 parametric-study/       solve/
display/                plot/                   surface/
exit                    preferences/            turbo-workflow/
file/                   print-license-usage     views/
mesh/                   report/

> 
Initialize using the hybrid initialization method.

Checking case topology... 
-This case has multiple farfield bc 
-Case will be initialized with constant parameters

	iter		scalar-0

	1		1.000000e+00
	2		3.919797e-04
	3		6.028076e-05
	4		1.060542e-05
	5		1.727644e-06
	6		5.225067e-07
	7		1.612475e-07
	8		7.360120e-08
	9		3.563116e-08
	10		2.217746e-08

Hybrid initialization is done.

Note: Settings to improve the robustness of pathline and
      particle tracking have been automatically enabled.


> 
  iter  continuity  x-velocity  y-velocity  z-velocity      energy           k       omega     time/iter
     1  1.0000e+00  9.0419e-05  1.3752e-04  1.4538e-04  3.9864e-07  8.2471e-01  4.4823e-01  0:48:58  499
     2  9.0252e-01  7.0988e-05  1.0444e-04  8.4182e-05  3.2032e-07  7.3262e-01  4.2087e-01  0:49:09  498
     3  1.0000e+00  6.6923e-05  1.0970e-04  6.4402e-05  2.5648e-07  5.9187e-01  3.8169e-01  0:49:15  497
     4  1.0000e+00  7.0755e-05  2.1202e-04  5.0594e-05  4.9504e-07  3.7278e-01  3.2846e-01  0:49:21  496
     5  1.0000e+00  1.2284e-04  5.2217e-04  9.6398e-05  9.9455e-07  1.6212e-01  2.6421e-01  0:49:23  495
     6  2.8599e+00  3.2943e-04  1.4734e-03  2.2722e-04  5.0356e-06  1.0513e-01  1.9916e-01  0:49:23  494
     7  8.4025e+00  1.0610e-03  4.6013e-03  6.4558e-04  1.0638e-05  2.1720e-01  1.6276e-01  0:49:12  493
     8  2.0755e+01  2.3989e-03  1.0947e-02  1.7599e-03  1.2636e-04  4.1822e-01  2.1547e-01  0:48:21  492
     9  3.9823e+01  8.7631e-03  2.9697e-02  4.5159e-03  1.4051e-04  4.8411e-01  2.5801e-01  0:47:36  491
    10  5.1556e+01  9.6243e-03  3.0096e-02  5.8405e-03  2.4695e-04  5.1452e-01  2.6023e-01  0:47:00  490
    11  6.5311e+01  2.0095e-02  4.9462e-02  8.6462e-03  2.6180e-04  5.0908e-01  2.8313e-01  0:46:31  489

  iter  continuity  x-velocity  y-velocity  z-velocity      energy           k       omega     time/iter
    12  8.0096e+01  1.9964e-02  5.4792e-02  1.1864e-02  3.3976e-04  5.5194e-01  3.1357e-01  0:46:09  488
    13  8.4530e+01  2.8870e-02  6.6939e-02  1.1320e-02  4.2128e-04  5.9303e-01  3.4972e-01  0:45:50  487
    14  1.0592e+02  3.4734e-02  8.1607e-02  1.6051e-02  5.4561e-04  5.8156e-01  3.4239e-01  0:45:33  486
    15  1.0959e+02  3.9957e-02  1.0377e-01  1.5684e-02  7.8031e-04  6.3424e-01  3.9803e-01  0:45:18  485
    16  1.3972e+02  4.9158e-02  1.3535e-01  2.2398e-02  8.3577e-04  6.5999e-01  4.0288e-01  0:45:05  484
    17  1.2609e+02  5.3764e-02  1.4270e-01  2.2432e-02  8.6748e-04  5.9018e-01  3.8118e-01  0:44:53  483
    18  1.5875e+02  6.2476e-02  1.6415e-01  2.5263e-02  1.1612e-03  6.3732e-01  3.9743e-01  0:44:44  482
    19  1.5514e+02  7.4458e-02  1.9324e-01  2.6459e-02  1.2383e-03  6.0227e-01  4.0159e-01  0:45:02  481
    20  1.8053e+02  9.5550e-02  2.0701e-01  3.4454e-02  1.3500e-03  6.3815e-01  4.1281e-01  0:44:46  480
    21  1.7095e+02  8.8900e-02  2.0871e-01  3.5632e-02  1.4437e-03  6.0535e-01  4.0765e-01  0:44:35  479
    22  1.9055e+02  1.0155e-01  2.4804e-01  4.3633e-02  1.7064e-03  5.9120e-01  3.8136e-01  0:44:24  478

  iter  continuity  x-velocity  y-velocity  z-velocity      energy           k       omega     time/iter
    23  1.8688e+02  1.2139e-01  2.4204e-01  4.9183e-02  1.8842e-03  5.7651e-01  4.0300e-01  0:44:15  477
    24  2.1542e+02  1.3878e-01  2.7819e-01  5.1682e-02  2.1246e-03  6.5870e-01  4.3677e-01  0:44:07  476
    25  2.0362e+02  1.4730e-01  2.8096e-01  5.8633e-02  1.9557e-03  5.7222e-01  3.9301e-01  0:44:00  475
    26  2.3659e+02  1.8417e-01  3.2951e-01  6.8837e-02  2.5228e-03  6.7841e-01  4.5780e-01  0:43:53  474
    27  2.3011e+02  1.7451e-01  2.8203e-01  6.6732e-02  3.9912e-03  5.8416e-01  3.9863e-01  0:43:47  473
    28  2.4397e+02  2.5553e-01  3.4588e-01  8.0306e-02  3.4761e-03  7.5980e-01  5.4037e-01  0:43:43  472
    29  2.5110e+02  1.9486e-01  3.8739e-01  8.1978e-02  4.1806e-03  7.5570e-01  4.7028e-01  0:43:38  471
    30  2.5705e+02  2.9987e-01  3.7428e-01  9.0132e-02  3.8736e-03  6.8492e-01  4.4626e-01  0:43:30  470
    31  2.6717e+02  2.4296e-01  3.4444e-01  8.1965e-02  5.6511e-03  6.8578e-01  4.6566e-01  0:43:23  469
    32  2.8450e+02  3.0140e-01  3.7630e-01  9.3785e-02  4.0415e-03  7.5862e-01  5.4208e-01  0:43:16  468
    33  2.9174e+02  2.3010e-01  3.8140e-01  8.6985e-02  8.2037e-03  8.3987e-01  4.7822e-01  0:43:08  467

  iter  continuity  x-velocity  y-velocity  z-velocity      energy           k       omega     time/iter
    34  3.0588e+02  2.9410e-01  3.5886e-01  8.8069e-02  4.7943e-03  6.8584e-01  4.6080e-01  0:43:02  466
    35  3.0964e+02  2.9019e-01  3.4373e-01  8.9107e-02  6.9917e-03  8.5562e-01  5.9969e-01  0:42:58  465
    36  3.2323e+02  2.7207e-01  3.1925e-01  9.8611e-02  5.7417e-03  7.7745e-01  4.5835e-01  0:42:52  464
    37  3.4838e+02  2.6771e-01  3.4569e-01  8.3447e-02  7.2356e-03  8.6727e-01  5.3454e-01  0:42:47  463
    38  3.4918e+02  2.3236e-01  3.5278e-01  9.1070e-02  4.8601e-03  7.4971e-01  4.6572e-01  0:42:39  462
    39  3.7571e+02  2.3970e-01  3.5127e-01  8.5649e-02  1.2177e-02  8.0811e-01  5.6039e-01  0:42:32  461
    40  3.8217e+02  2.6877e-01  3.4447e-01  9.2600e-02  5.9123e-03  7.5463e-01  4.5966e-01  0:42:24  460
    41  4.1355e+02  2.3922e-01  3.6380e-01  9.0980e-02  9.7250e-03  8.4257e-01  5.5428e-01  0:42:18  459
    42  4.0942e+02  2.6761e-01  3.1827e-01  9.0657e-02  7.1548e-03  8.0458e-01  5.1350e-01  0:42:11  458
    43  4.5353e+02  2.6757e-01  3.6309e-01  9.3423e-02  8.9768e-03  8.7873e-01  5.2697e-01  0:42:04  457
    44  4.2021e+02  2.6225e-01  3.2729e-01  9.0954e-02  6.4704e-03  8.3017e-01  4.9219e-01  0:41:57  456

  iter  continuity  x-velocity  y-velocity  z-velocity      energy           k       omega     time/iter
    45  4.6310e+02  2.3830e-01  3.9586e-01  9.3410e-02  9.0531e-03  9.2638e-01  5.5542e-01  0:41:52  455
    46  4.5801e+02  2.9775e-01  3.4691e-01  9.9412e-02  6.7229e-03  8.1072e-01  4.7961e-01  0:41:47  454
    47  5.0573e+02  2.4412e-01  4.0077e-01  9.9161e-02  1.0522e-02  8.2873e-01  5.1630e-01  0:41:42  453
    48  4.5954e+02  2.4753e-01  3.7028e-01  9.2437e-02  6.6502e-03  7.3423e-01  4.6642e-01  0:41:36  452
    49  5.3659e+02  2.6634e-01  4.2644e-01  1.0253e-01  1.2533e-02  9.3883e-01  5.9194e-01  0:41:31  451
    50  4.9950e+02  2.9260e-01  2.9722e-01  9.0078e-02  7.6522e-03  7.9866e-01  4.6960e-01  0:41:24  450
    51  5.8541e+02  2.9365e-01  4.2156e-01  1.0410e-01  1.4785e-02  1.1144e+00  7.2635e-01  0:41:18  449
    52  5.3659e+02  2.8091e-01  3.5705e-01  9.4320e-02  9.5360e-03  8.7937e-01  4.8346e-01  0:41:10  448
    53  6.2618e+02  2.8489e-01  4.1396e-01  1.0607e-01  1.2897e-02  1.0295e+00  5.8398e-01  0:41:05  447
    54  5.8404e+02  2.6819e-01  3.1095e-01  9.5053e-02  1.1177e-02  8.3573e-01  4.7291e-01  0:40:55  446
    55  6.6910e+02  3.1958e-01  3.9484e-01  1.0637e-01  1.6088e-02  1.0838e+00  6.1251e-01  0:40:50  445

  iter  continuity  x-velocity  y-velocity  z-velocity      energy           k       omega     time/iter
    56  6.1154e+02  2.4958e-01  3.8178e-01  9.7985e-02  1.0084e-02  9.0341e-01  4.9856e-01  0:40:46  444
    57  7.3127e+02  2.8484e-01  4.3908e-01  1.1401e-01  1.5241e-02  1.0647e+00  6.0545e-01  0:40:40  443
    58  6.4391e+02  2.9647e-01  3.0776e-01  1.0244e-01  9.0840e-03  8.8063e-01  4.8604e-01  0:40:35  442
    59  7.0658e+02  3.0887e-01  4.0489e-01  1.1331e-01  1.0601e-02  1.0294e+00  5.8766e-01  0:40:30  441
    60  6.6531e+02  2.8607e-01  3.9038e-01  1.1350e-01  1.0182e-02  8.8906e-01  4.9160e-01  0:40:28  440
    61  8.0647e+02  2.7008e-01  4.2479e-01  1.1109e-01  1.2079e-02  9.1983e-01  5.2208e-01  0:40:26  439
    62  6.7922e+02  3.0828e-01  3.5692e-01  1.1184e-01  9.7228e-03  8.0794e-01  4.8699e-01  0:40:17  438
    63  7.3976e+02  2.7733e-01  3.9696e-01  1.0667e-01  1.6265e-02  1.0281e+00  5.9720e-01  0:40:11  437
    64  7.4251e+02  2.9568e-01  3.8338e-01  1.0719e-01  1.1797e-02  9.2591e-01  5.2704e-01  0:40:05  436
    65  8.6275e+02  2.9535e-01  3.9334e-01  1.1333e-01  1.8868e-02  9.9680e-01  5.6523e-01  0:40:00  435
    66  7.7815e+02  3.0180e-01  3.0763e-01  1.0332e-01  1.0143e-02  9.2808e-01  5.2727e-01  0:39:54  434

  iter  continuity  x-velocity  y-velocity  z-velocity      energy           k       omega     time/iter
    67  8.5846e+02  2.8839e-01  3.9316e-01  1.1839e-01  2.1316e-02  1.0392e+00  5.8865e-01  0:39:49  433
    68  8.4105e+02  3.1418e-01  3.3511e-01  1.0694e-01  1.0883e-02  8.6517e-01  4.7696e-01  0:39:45  432
    69  9.8108e+02  2.7523e-01  3.8521e-01  1.1237e-01  1.6628e-02  9.9264e-01  5.6080e-01  0:39:40  431
    70  8.4262e+02  2.8854e-01  3.3301e-01  1.1280e-01  1.1889e-02  8.5686e-01  4.8630e-01  0:39:33  430
    71  9.3548e+02  2.7283e-01  3.9248e-01  1.1278e-01  1.8035e-02  1.0728e+00  6.1621e-01  0:39:27  429
    72  8.9121e+02  2.6675e-01  3.6345e-01  1.1175e-01  1.1386e-02  9.0214e-01  4.9630e-01  0:39:22  428
    73  1.0393e+03  2.8662e-01  3.7973e-01  1.1306e-01  1.9291e-02  1.0504e+00  5.8900e-01  0:39:17  427
    74  9.1993e+02  2.6697e-01  3.2525e-01  1.0072e-01  1.1508e-02  9.3532e-01  5.1829e-01  0:39:12  426
    75  1.0473e+03  2.7130e-01  3.9697e-01  1.1077e-01  2.0698e-02  1.0863e+00  6.0565e-01  0:39:07  425
    76  1.0009e+03  2.9325e-01  3.6376e-01  1.1147e-01  1.6788e-02  9.2173e-01  4.9394e-01  0:39:01  424
    77  1.1638e+03  3.0154e-01  3.7811e-01  1.1248e-01  1.6570e-02  9.7634e-01  5.4267e-01  0:38:54  423

  iter  continuity  x-velocity  y-velocity  z-velocity      energy           k       omega     time/iter
    78  1.0565e+03  2.5247e-01  3.4588e-01  1.1085e-01  1.6389e-02  9.0106e-01  5.0430e-01  0:38:47  422
    79  1.1362e+03  2.6895e-01  4.1613e-01  1.1681e-01  1.8840e-02  1.1087e+00  6.2263e-01  0:38:43  421
    80  1.1202e+03  2.8382e-01  3.8762e-01  1.1619e-01  1.6145e-02  9.4932e-01  5.1647e-01  0:38:45  420
    81  1.2272e+03  2.8087e-01  3.7415e-01  1.0995e-01  2.1528e-02  1.0014e+00  5.6830e-01  0:38:38  419
    82  1.1334e+03  2.6733e-01  3.7434e-01  1.1043e-01  1.6329e-02  1.0099e+00  5.5184e-01  0:38:32  418
    83  1.2270e+03  3.1386e-01  4.1163e-01  1.2620e-01  2.8672e-02  1.0183e+00  5.4900e-01  0:38:26  417
    84  1.2102e+03  3.0193e-01  3.8131e-01  1.1412e-01  1.5510e-02  9.5789e-01  5.0945e-01  0:38:27  416
    85  1.3764e+03  2.9718e-01  4.4552e-01  1.3047e-01  2.3694e-02  1.0110e+00  5.4672e-01  0:38:21  415
    86  1.2793e+03  2.7973e-01  3.5287e-01  1.1823e-01  2.0475e-02  9.6178e-01  5.2183e-01  0:38:14  414
    87  1.3420e+03  2.7724e-01  4.2487e-01  1.1921e-01  2.0116e-02  1.0524e+00  5.7223e-01  0:38:09  413
    88  1.3419e+03  2.8733e-01  3.8635e-01  1.2278e-01  2.4345e-02  1.0001e+00  5.4032e-01  0:38:01  412

  iter  continuity  x-velocity  y-velocity  z-velocity      energy           k       omega     time/iter
    89  1.4704e+03  2.7935e-01  3.6217e-01  1.0987e-01  2.4383e-02  9.6640e-01  5.1935e-01  0:37:54  411
    90  1.4172e+03  2.6806e-01  3.8707e-01  1.1392e-01  1.9278e-02  9.9091e-01  5.4194e-01  0:37:48  410
    91  1.4367e+03  3.1572e-01  3.7084e-01  1.2898e-01  2.6844e-02  1.0601e+00  5.6619e-01  0:37:42  409
    92  1.4861e+03  2.8032e-01  3.9324e-01  1.1802e-01  1.9354e-02  9.6843e-01  5.1485e-01  0:37:35  408
    93  1.5134e+03  2.6879e-01  3.6940e-01  1.1683e-01  2.3577e-02  1.0148e+00  5.5373e-01  0:37:30  407
    94  1.5484e+03  2.9689e-01  3.6136e-01  1.2173e-01  2.4658e-02  1.0325e+00  5.5570e-01  0:37:23  406
    95  1.5696e+03  2.8198e-01  3.9879e-01  1.2377e-01  2.3641e-02  9.8951e-01  5.3050e-01  0:37:16  405
    96  1.6105e+03  2.8599e-01  3.8634e-01  1.2844e-01  2.4148e-02  1.0465e+00  5.6647e-01  0:37:10  404
    97  1.6895e+03  2.5175e-01  3.9169e-01  1.2228e-01  3.0307e-02  9.7319e-01  5.1983e-01  0:37:04  403
    98  1.7133e+03  2.4900e-01  3.8256e-01  1.1803e-01  2.8163e-02  1.0032e+00  5.3884e-01  0:36:59  402
    99  1.7027e+03  2.8969e-01  3.9883e-01  1.2738e-01  2.9627e-02  1.0286e+00  5.5817e-01  0:36:53  401

  iter  continuity  x-velocity  y-velocity  z-velocity      energy           k       omega     time/iter
   100  1.7524e+03  2.6131e-01  4.1963e-01  1.1906e-01  2.3191e-02  9.8818e-01  5.1984e-01  0:36:48  400
   101  1.7597e+03  2.6638e-01  3.8603e-01  1.2093e-01  3.2847e-02  1.0171e+00  5.4393e-01  0:36:41  399
   102  1.8531e+03  3.5321e-01  3.8691e-01  1.2944e-01  2.4683e-02  1.0058e+00  5.4156e-01  0:36:35  398
   103  1.7981e+03  2.7570e-01  3.8300e-01  1.2548e-01  2.8461e-02  9.8890e-01  5.2427e-01  0:36:30  397
   104  1.9170e+03  3.1718e-01  4.0971e-01  1.3103e-01  3.0497e-02  1.1214e+00  6.0725e-01  0:36:26  396
   105  1.9371e+03  2.9317e-01  3.7922e-01  1.2477e-01  2.4630e-02  9.7625e-01  5.1500e-01  0:36:21  395
   106  2.0309e+03  2.4064e-01  3.9393e-01  1.1634e-01  2.5773e-02  1.0197e+00  5.4889e-01  0:36:16  394
   107  2.0068e+03  2.8293e-01  3.9634e-01  1.3209e-01  2.6046e-02  9.8735e-01  5.3087e-01  0:36:10  393
   108  2.0477e+03  2.5742e-01  4.0169e-01  1.2261e-01  2.5323e-02  1.0304e+00  5.5313e-01  0:36:05  392
   109  2.0802e+03  2.8598e-01  4.0422e-01  1.2667e-01  2.4827e-02  1.0212e+00  5.3719e-01  0:36:00  391
   110  2.1810e+03  2.7625e-01  4.0189e-01  1.2798e-01  2.4142e-02  1.0196e+00  5.3548e-01  0:35:55  390

  iter  continuity  x-velocity  y-velocity  z-velocity      energy           k       omega     time/iter
   111  2.1923e+03  2.5818e-01  3.7794e-01  1.2438e-01  2.8160e-02  9.9448e-01  5.2769e-01  0:35:48  389
   112  2.2728e+03  2.6889e-01  4.0503e-01  1.2478e-01  2.4088e-02  1.0415e+00  5.5224e-01  0:35:44  388
   113  2.3018e+03  2.5582e-01  3.8059e-01  1.2439e-01  2.7854e-02  1.0808e+00  5.7755e-01  0:35:38  387
   114  2.3900e+03  2.8008e-01  3.8699e-01  1.2426e-01  2.6044e-02  1.0089e+00  5.3409e-01  0:35:31  386
   115  2.3506e+03  2.7229e-01  3.7886e-01  1.3539e-01  2.5334e-02  9.9342e-01  5.2524e-01  0:35:25  385
   116  2.4222e+03  2.8172e-01  4.1190e-01  1.3663e-01  2.7429e-02  1.0298e+00  5.4190e-01  0:35:21  384
   117  2.4619e+03  2.7695e-01  3.9606e-01  1.2723e-01  3.1043e-02  1.0309e+00  5.3786e-01  0:35:14  383
   118  2.7196e+03  2.6223e-01  4.2191e-01  1.2682e-01  2.9827e-02  1.0268e+00  5.3895e-01  0:35:08  382
   119  2.5332e+03  2.3480e-01  3.5135e-01  1.1721e-01  2.4658e-02  1.0229e+00  5.4508e-01  0:35:02  381
   120  2.6959e+03  2.6647e-01  4.2423e-01  1.3794e-01  3.7822e-02  1.0721e+00  5.6659e-01  0:34:56  380
   121  2.6682e+03  2.6518e-01  3.8765e-01  1.2358e-01  2.5710e-02  1.0043e+00  5.2786e-01  0:34:51  379

  iter  continuity  x-velocity  y-velocity  z-velocity      energy           k       omega     time/iter
   122  2.8520e+03  2.8944e-01  4.1713e-01  1.4330e-01  2.4010e-02  1.0263e+00  5.3548e-01  0:34:44  378
   123  2.7820e+03  2.5591e-01  3.8690e-01  1.3083e-01  3.0778e-02  9.8959e-01  5.2321e-01  0:34:40  377
   124  2.8850e+03  3.0256e-01  3.9798e-01  1.2363e-01  2.5130e-02  1.0121e+00  5.2990e-01  0:34:34  376
   125  2.7578e+03  2.8012e-01  3.6949e-01  1.2610e-01  3.4921e-02  1.0819e+00  5.5947e-01  0:34:30  375
   126  3.1394e+03  3.0687e-01  4.0395e-01  1.3510e-01  2.9856e-02  1.0169e+00  5.3059e-01  0:34:25  374
   127  3.0679e+03  2.6171e-01  3.6690e-01  1.2316e-01  4.2173e-02  1.0286e+00  5.5023e-01  0:34:20  373
   128  3.2617e+03  3.2643e-01  3.9836e-01  1.2409e-01  3.4187e-02  1.0875e+00  5.7231e-01  0:34:15  372
   129  2.9620e+03  2.5532e-01  3.5759e-01  1.1678e-01  2.6475e-02  9.8927e-01  5.1544e-01  0:34:10  371
   130  3.5220e+03  3.0051e-01  4.4314e-01  1.4645e-01  3.3294e-02  1.0945e+00  5.7018e-01  0:34:04  370
   131  3.2947e+03  2.1298e-01  3.5781e-01  1.1731e-01  2.9086e-02  9.8255e-01  5.1399e-01  0:33:59  369
   132  3.4176e+03  2.7201e-01  3.8677e-01  1.1618e-01  3.1208e-02  1.0491e+00  5.4737e-01  0:34:03  368

  iter  continuity  x-velocity  y-velocity  z-velocity      energy           k       omega     time/iter
   133  3.1364e+03  2.6769e-01  3.8616e-01  1.1761e-01  3.2017e-02  1.0484e+00  5.5919e-01  0:33:56  367
   134  3.6078e+03  3.1463e-01  4.1344e-01  1.3292e-01  3.1967e-02  1.0194e+00  5.2855e-01  0:33:49  366
   135  3.4535e+03  2.4921e-01  3.8623e-01  1.2216e-01  2.3704e-02  9.8047e-01  5.1475e-01  0:33:43  365
   136  3.8209e+03  3.3707e-01  4.6291e-01  1.4675e-01  3.9188e-02  1.2140e+00  6.1984e-01  0:33:37  364
   137  3.3306e+03  2.0049e-01  3.6749e-01  1.1024e-01  2.5834e-02  9.8763e-01  5.1178e-01  0:33:31  363
   138  3.7050e+03  2.9859e-01  4.5217e-01  1.4330e-01  3.4155e-02  1.0982e+00  5.6358e-01  0:33:26  362
   139  3.6193e+03  2.7296e-01  4.5894e-01  1.4094e-01  2.7740e-02  9.7895e-01  5.0725e-01  0:33:19  361
   140  3.6852e+03  2.9405e-01  4.0930e-01  1.2711e-01  2.6267e-02  1.0628e+00  5.4047e-01  0:33:11  360
   141  3.4313e+03  2.8907e-01  3.9539e-01  1.3226e-01  2.7162e-02  1.0438e+00  5.4419e-01  0:33:11  359
   142  3.8081e+03  3.1294e-01  4.7971e-01  1.5035e-01  2.8870e-02  1.0521e+00  5.4658e-01  0:33:03  358
   143  3.6843e+03  2.6641e-01  4.0217e-01  1.2920e-01  2.8439e-02  9.7399e-01  5.0842e-01  0:32:55  357

  iter  continuity  x-velocity  y-velocity  z-velocity      energy           k       omega     time/iter
   144  4.0490e+03  3.0083e-01  4.3870e-01  1.2698e-01  4.4905e-02  1.1925e+00  6.0460e-01  0:32:48  356
   145  3.6389e+03  2.2197e-01  4.1822e-01  1.2088e-01  3.3438e-02  1.0038e+00  5.1892e-01  0:32:42  355
   146  4.1182e+03  3.1482e-01  5.3864e-01  1.5472e-01  4.0285e-02  1.1285e+00  5.8036e-01  0:32:35  354
   147  3.6580e+03  2.4164e-01  4.2826e-01  1.2903e-01  2.7092e-02  9.8751e-01  5.1159e-01  0:32:31  353
   148  4.2536e+03  3.4348e-01  4.4228e-01  1.4452e-01  3.3667e-02  1.0466e+00  5.3965e-01  0:32:25  352
   149  3.7241e+03  2.7016e-01  4.3817e-01  1.2981e-01  3.3123e-02  1.0354e+00  5.3851e-01  0:32:20  351
   150  3.9507e+03  3.2082e-01  4.8945e-01  1.4309e-01  3.5847e-02  1.0859e+00  5.6162e-01  0:32:12  350
   151  3.7531e+03  2.6638e-01  4.1975e-01  1.2731e-01  2.4218e-02  9.9271e-01  5.1700e-01  0:32:06  349
   152  4.3547e+03  3.2245e-01  4.7723e-01  1.4782e-01  3.3575e-02  1.0349e+00  5.4395e-01  0:31:24  348
   153  3.8760e+03  2.5294e-01  4.5227e-01  1.2143e-01  2.7097e-02  9.9125e-01  5.1923e-01  0:31:25  347
   154  3.8920e+03  3.5047e-01  4.8599e-01  1.4554e-01  3.0095e-02  1.1303e+00  5.6817e-01  0:31:25  346

  iter  continuity  x-velocity  y-velocity  z-velocity      energy           k       omega     time/iter
   155  3.8544e+03  3.0335e-01  4.5982e-01  1.4076e-01  3.4800e-02  1.0080e+00  5.2262e-01  0:31:24  345
   156  4.2024e+03  3.5160e-01  4.2006e-01  1.3250e-01  2.5196e-02  1.0462e+00  5.4000e-01  0:31:29  344
   157  3.9918e+03  2.4905e-01  4.2672e-01  1.2835e-01  2.9540e-02  1.0009e+00  5.2409e-01  0:31:31  343
   158  3.8724e+03  3.2928e-01  4.2342e-01  1.3564e-01  2.2671e-02  1.0367e+00  5.3940e-01  0:31:27  342
   159  3.8126e+03  2.8403e-01  4.5642e-01  1.4301e-01  2.4782e-02  1.0238e+00  5.3615e-01  0:30:45  341
   160  4.2201e+03  3.1559e-01  4.0710e-01  1.3445e-01  2.6440e-02  1.0634e+00  5.5333e-01  0:30:47  340
   161  4.0536e+03  2.3317e-01  3.9506e-01  1.2464e-01  2.4929e-02  1.0171e+00  5.3383e-01  0:30:45  339
   162  4.0091e+03  3.3454e-01  4.6065e-01  1.4374e-01  3.5936e-02  1.0968e+00  5.7139e-01  0:30:46  338
   163  4.1522e+03  2.5509e-01  4.4347e-01  1.3254e-01  3.4198e-02  9.8875e-01  5.0872e-01  0:30:45  337
   164  4.3989e+03  2.8368e-01  4.3814e-01  1.2447e-01  3.5429e-02  1.0857e+00  5.5373e-01  0:30:44  336
   165  4.3613e+03  2.6881e-01  4.4028e-01  1.3539e-01  3.8062e-02  1.0260e+00  5.2939e-01  0:30:41  335

  iter  continuity  x-velocity  y-velocity  z-velocity      energy           k       omega     time/iter
   166  4.5055e+03  2.9828e-01  3.8808e-01  1.2378e-01  2.9649e-02  1.0361e+00  5.3786e-01  0:30:37  334
   167  4.1725e+03  2.6593e-01  3.9095e-01  1.2219e-01  3.4280e-02  1.0393e+00  5.4318e-01  0:30:34  333
   168  4.7255e+03  3.5194e-01  4.2537e-01  1.4115e-01  3.5426e-02  1.0777e+00  5.6304e-01  0:30:30  332
   169  4.3493e+03  2.4555e-01  3.6587e-01  1.1445e-01  2.8725e-02  9.9022e-01  5.1165e-01  0:29:51  331
   170  4.8128e+03  3.6001e-01  4.6482e-01  1.5048e-01  2.8982e-02  1.0797e+00  5.5659e-01  0:29:53  330
   171  4.4348e+03  2.5376e-01  4.0114e-01  1.2692e-01  2.9157e-02  9.9092e-01  5.0804e-01  0:30:00  329
   172  4.6942e+03  3.0860e-01  4.2342e-01  1.3632e-01  3.5550e-02  1.1120e+00  5.6031e-01  0:29:26  328
   173  4.7255e+03  2.7726e-01  4.6674e-01  1.3691e-01  4.0693e+01  1.0414e+00  5.5311e-01  0:29:30  327
   174  1.2096e+04  8.1211e-01  9.5070e-01  5.3823e-02  1.1239e+02  9.4744e-01  4.1333e-01  0:29:33  326
   175  6.5457e+03  4.4118e-01  5.1169e-01  2.3235e-02  2.7003e+01  1.4703e+00  6.5015e-01  0:29:35  325
   176  6.1967e+03  3.9369e-01  4.5748e-01  4.0001e-02  5.2868e+00  9.3281e-01  4.7335e-01  0:29:41  324

  iter  continuity  x-velocity  y-velocity  z-velocity      energy           k       omega     time/iter
   177  5.4127e+03  3.5042e-01  4.1561e-01  5.6003e-02  1.4735e+00  8.7949e-01  4.6303e-01  0:29:04  323
   178  5.8448e+03  3.4130e-01  3.9665e-01  7.3183e-02  2.4566e-01  9.1028e-01  4.7462e-01  0:29:06  322
   179  4.9005e+03  2.5725e-01  3.5476e-01  9.3031e-02  8.4274e-02  9.1327e-01  4.6658e-01  0:28:42  321
   180  5.8412e+03  2.4824e-01  3.1931e-01  1.0839e-01  4.5975e-02  1.0340e+00  5.2664e-01  0:28:21  320
   181  5.2435e+03  1.7181e-01  3.1288e-01  1.0517e-01  3.6303e-02  9.6739e-01  4.8936e-01  0:28:02  319
   182  5.7629e+03  2.2386e-01  2.8178e-01  1.1064e-01  2.8594e-02  1.0766e+00  5.5140e-01  0:27:46  318
   183  4.9313e+03  1.9424e-01  2.7917e-01  1.0881e-01  2.7671e-02  1.0219e+00  5.2881e-01  0:27:43  317
   184  5.9136e+03  2.1906e-01  2.9986e-01  1.1633e-01  2.7378e-02  1.0691e+00  5.8514e-01  0:27:56  316
   185  5.2310e+03  1.9857e-01  3.1289e-01  1.3163e-01  2.5673e-02  9.7531e-01  4.9104e-01  0:27:31  315
   186  6.3918e+03  2.3129e-01  3.3443e-01  1.3850e-01  3.0447e-02  1.0590e+00  5.2197e-01  0:27:44  314
   187  5.4753e+03  1.9959e-01  2.5557e-01  1.2203e-01  2.6917e-02  9.6979e-01  4.9747e-01  0:27:20  313

  iter  continuity  x-velocity  y-velocity  z-velocity      energy           k       omega     time/iter
   188  6.9317e+03  2.2871e-01  3.1002e-01  1.2674e-01  4.2420e-02  1.0736e+00  5.5665e-01  0:27:34  312
   189  6.2768e+03  1.5592e-01  2.9003e-01  1.0772e-01  3.1732e-02  9.5039e-01  6.1895e-01  0:27:10  311
   190  7.4914e+03  1.8342e-01  2.8547e-01  1.0619e-01  2.8454e-02  9.8367e-01  4.9759e-01  0:27:22  310
   191  6.6760e+03  1.7197e-01  2.2540e-01  1.0667e-01  3.0175e-02  9.2129e-01  4.9408e-01  0:26:59  309
   192  7.9683e+03  1.7036e-01  2.4092e-01  1.0856e-01  3.0223e-02  9.4743e-01  4.9618e-01  0:27:11  308
   193  7.8492e+03  1.3758e-01  2.1753e-01  1.0086e-01  2.4869e-02  8.8109e-01  4.6892e-01  0:26:46  307
   194  9.0635e+03  1.3442e-01  2.0207e-01  1.0193e-01  2.7736e-02  9.4714e-01  4.8558e-01  0:26:59  306
   195  9.0063e+03  1.2802e-01  1.5514e-01  9.4936e-02  2.1785e-02  9.0393e-01  5.1523e-01  0:26:36  305
   196  1.0452e+04  9.9203e-02  1.4700e-01  8.5892e-02  2.7552e-02  9.5666e-01  4.8794e-01  0:26:17  304
   197  1.1571e+04  9.3795e-02  1.4226e-01  8.1054e-02  2.4309e-02  9.1907e-01  4.8383e-01  0:26:00  303
   198  1.3834e+04  8.5933e-02  1.4264e-01  8.7832e-02  2.7427e-02  9.2866e-01  5.1360e-01  0:25:47  302

  iter  continuity  x-velocity  y-velocity  z-velocity      energy           k       omega     time/iter
   199  1.6727e+04  9.3054e-02  1.3037e-01  1.0693e-01  2.5889e-02  8.7302e-01  4.4217e-01  0:25:34  301
   200  2.2165e+04  8.7736e-02  1.3529e-01  1.2916e-01  2.5481e-02  8.3872e-01  4.5202e-01  0:25:23  300
   201  2.9571e+04  8.9743e-02  1.2498e-01  1.4542e-01  2.1646e-02  8.2435e-01  4.7877e-01  0:25:12  299
   202  4.0809e+04  7.9863e-02  1.0793e-01  1.4630e-01  1.8387e-02  7.7638e-01  4.4747e-01  0:25:09  298
   203  5.7910e+04  6.3986e-02  8.8708e-02  1.2616e-01  1.6972e-02  7.4712e-01  4.4554e-01  0:25:05  297
   204  8.0821e+04  5.1174e-02  7.1235e-02  9.8512e-02  1.3585e-02  7.3030e-01  4.1074e-01  0:24:56  296
   205  1.0911e+05  4.6312e-02  6.7723e-02  9.8057e-02  1.1437e-02  7.0274e-01  3.5938e-01  0:24:47  295
   206  1.5216e+05  3.9365e-02  5.4804e-02  9.7280e-02  1.2565e-02  5.3158e-01  3.5264e-01  0:24:39  294
   207  2.1550e+05  3.6339e-02  5.0653e-02  1.0077e-01  1.3258e-02  5.1306e-01  3.7938e-01  0:24:32  293
   208  2.9505e+05  3.7547e-02  5.3582e-02  1.0093e-01  1.3000e-02  5.6582e-01  3.8243e-01  0:24:26  292
   209  4.0404e+05  4.1330e-02  5.9768e-02  1.0683e-01  1.2912e-02  5.5118e-01  3.5302e-01  0:24:20  291

  iter  continuity  x-velocity  y-velocity  z-velocity      energy           k       omega     time/iter
   210  5.5851e+05  4.8142e-02  6.8401e-02  1.2968e-01  1.8548e-02  5.7198e-01  3.4948e-01  0:24:14  290
   211  7.8984e+05  4.9350e-02  6.5747e-02  1.3461e-01  1.8100e-02  6.2481e-01  4.8628e-01  0:24:09  289
   212  1.0033e+06  6.1969e-02  8.6034e-02  1.3906e-01  1.6462e-02  6.9718e-01  3.4947e-01  0:24:03  288
   213  1.1928e+06  6.1485e-02  7.9458e-02  1.3610e-01  1.7353e-02  6.2070e-01  3.6060e-01  0:23:57  287
   214  1.3950e+06  6.5690e-02  7.8477e-02  1.3643e-01  1.9783e-02  6.5376e-01  3.7142e-01  0:23:58  286

 turbulent viscosity limited to viscosity ratio of 1.000000e+05 in 51 cells 
   215  1.6518e+06  6.8882e-02  7.9655e-02  1.2919e-01  2.0188e-02  6.7372e-01  3.8253e-01  0:23:58  285

 turbulent viscosity limited to viscosity ratio of 1.000000e+05 in 377 cells 
   216  1.9025e+06  7.0273e-02  7.5709e-02  1.1746e-01  2.0724e-02  8.0496e-01  4.2569e-01  0:23:57  284

 turbulent viscosity limited to viscosity ratio of 1.000000e+05 in 2377 cells 
   217  2.2375e+06  6.9310e-02  7.3967e-02  1.0972e-01  2.0449e-02  8.6591e-01  4.3847e-01  0:23:55  283

 turbulent viscosity limited to viscosity ratio of 1.000000e+05 in 8333 cells 
   218  2.5241e+06  6.5979e-02  6.9982e-02  9.9217e-02  2.0507e-02  8.5559e-01  4.3401e-01  0:23:52  282

 turbulent viscosity limited to viscosity ratio of 1.000000e+05 in 17867 cells 
   219  2.9455e+06  6.5195e-02  6.8756e-02  1.0106e-01  1.9769e-02  8.3433e-01  4.3046e-01  0:23:43  281

 turbulent viscosity limited to viscosity ratio of 1.000000e+05 in 26075 cells 
   220  3.5951e+06  6.1530e-02  6.8320e-02  1.0729e-01  1.8665e-02  7.4988e-01  4.2444e-01  0:23:40  280

 turbulent viscosity limited to viscosity ratio of 1.000000e+05 in 33525 cells 

  iter  continuity  x-velocity  y-velocity  z-velocity      energy           k       omega     time/iter
   221  4.5151e+06  6.1393e-02  7.2192e-02  1.1626e-01  1.9101e-02  7.2060e-01  4.3811e-01  0:23:37  279

 turbulent viscosity limited to viscosity ratio of 1.000000e+05 in 41333 cells 
   222  5.9404e+06  5.9618e-02  7.5102e-02  1.2570e-01  1.9057e-02  7.3740e-01  4.2938e-01  0:23:33  278

 turbulent viscosity limited to viscosity ratio of 1.000000e+05 in 50297 cells 
   223  7.8671e+06  5.9492e-02  7.6338e-02  1.3042e-01  1.8482e-02  6.7504e-01  4.0183e-01  0:23:29  277

 turbulent viscosity limited to viscosity ratio of 1.000000e+05 in 60391 cells 
   224  1.0314e+07  5.7040e-02  7.3805e-02  1.2453e-01  1.8553e-02  7.2435e-01  4.1850e-01  0:23:24  276

 turbulent viscosity limited to viscosity ratio of 1.000000e+05 in 69929 cells 
   225  1.1654e+07  5.3678e-02  7.0348e-02  1.1118e-01  2.0809e-02  7.4688e-01  4.1793e-01  0:23:19  275

 turbulent viscosity limited to viscosity ratio of 1.000000e+05 in 76335 cells 
   226  1.3868e+07  5.7872e-02  6.9975e-02  1.0107e-01  2.1984e-02  8.2609e-01  4.1454e-01  0:23:15  274

 turbulent viscosity limited to viscosity ratio of 1.000000e+05 in 82990 cells 
   227  1.6327e+07  5.9805e-02  6.6544e-02  1.0272e-01  2.4327e-02  8.9531e-01  4.4593e-01  0:23:10  273

 turbulent viscosity limited to viscosity ratio of 1.000000e+05 in 98193 cells 
   228  1.9898e+07  6.2471e-02  7.5833e-02  1.1304e-01  2.6606e-02  9.2324e-01  4.4541e-01  0:23:05  272

 turbulent viscosity limited to viscosity ratio of 1.000000e+05 in 114081 cells 
   229  2.4288e+07  6.1981e-02  8.5949e-02  1.2995e-01  2.8570e-02  8.8517e-01  4.4176e-01  0:23:01  271

 turbulent viscosity limited to viscosity ratio of 1.000000e+05 in 134750 cells 
   230  3.0609e+07  7.0906e-02  1.0544e-01  1.4800e-01  3.0141e-02  8.5039e-01  4.1862e-01  0:22:56  270

 turbulent viscosity limited to viscosity ratio of 1.000000e+05 in 157856 cells 
   231  3.7330e+07  7.5677e-02  1.1499e-01  1.6035e-01  2.9563e-02  8.1013e-01  4.2371e-01  0:22:52  269

 turbulent viscosity limited to viscosity ratio of 1.000000e+05 in 171817 cells 

  iter  continuity  x-velocity  y-velocity  z-velocity      energy           k       omega     time/iter
   232  4.4362e+07  7.9222e-02  1.2182e-01  1.6657e-01  3.0568e-02  8.2707e-01  4.4099e-01  0:22:42  268

 turbulent viscosity limited to viscosity ratio of 1.000000e+05 in 173944 cells 
   233  5.1092e+07  7.5874e-02  1.2382e-01  1.6191e-01  2.8857e-02  7.4788e-01  4.2267e-01  0:22:33  267

 turbulent viscosity limited to viscosity ratio of 1.000000e+05 in 169175 cells 
   234  5.7097e+07  6.9965e-02  1.1508e-01  1.4572e-01  2.9007e-02  8.0017e-01  4.4223e-01  0:22:25  266

 turbulent viscosity limited to viscosity ratio of 1.000000e+05 in 163730 cells 
   235  6.2937e+07  6.5644e-02  1.0922e-01  1.3887e-01  2.9816e-02  7.8846e-01  4.2766e-01  0:22:17  265

 turbulent viscosity limited to viscosity ratio of 1.000000e+05 in 159229 cells 
   236  7.1448e+07  6.3078e-02  9.5780e-02  1.3095e-01  3.0770e-02  8.6691e-01  4.4016e-01  0:22:12  264

 turbulent viscosity limited to viscosity ratio of 1.000000e+05 in 157539 cells 
   237  8.1565e+07  6.0220e-02  8.4974e-02  1.2627e-01  2.9214e-02  9.1584e-01  4.5885e-01  0:22:11  263

 turbulent viscosity limited to viscosity ratio of 1.000000e+05 in 154504 cells 
   238  9.8391e+07  6.1211e-02  7.9485e-02  1.1938e-01  3.0313e-02  9.4167e-01  4.4661e-01  0:22:10  262

 turbulent viscosity limited to viscosity ratio of 1.000000e+05 in 154899 cells 
   239  1.2613e+08  6.2454e-02  8.2666e-02  1.2735e-01  3.2036e-02  9.4609e-01  4.4923e-01  0:22:08  261

 turbulent viscosity limited to viscosity ratio of 1.000000e+05 in 153760 cells 
   240  1.5690e+08  6.5338e-02  8.6131e-02  1.4198e-01  3.2202e-02  9.4939e-01  4.7144e-01  0:22:04  260

 turbulent viscosity limited to viscosity ratio of 1.000000e+05 in 153276 cells 
   241  2.0181e+08  6.8310e-02  9.6142e-02  1.5714e-01  3.1061e-02  9.1871e-01  4.4215e-01  0:22:00  259

 turbulent viscosity limited to viscosity ratio of 1.000000e+05 in 157972 cells 
   242  2.6538e+08  6.8150e-02  9.6161e-02  1.6236e-01  3.1698e-02  9.1858e-01  4.3558e-01  0:21:56  258

 turbulent viscosity limited to viscosity ratio of 1.000000e+05 in 164319 cells 

  iter  continuity  x-velocity  y-velocity  z-velocity      energy           k       omega     time/iter
   243  3.1791e+08  6.4913e-02  9.8440e-02  1.5184e-01  3.3416e-02  9.4892e-01  4.5648e-01  0:21:53  257

 turbulent viscosity limited to viscosity ratio of 1.000000e+05 in 173376 cells 
   244  3.7834e+08  6.3318e-02  9.7965e-02  1.4870e-01  3.1179e-02  9.5803e-01  4.5965e-01  0:21:48  256

 absolute pressure limited to 5.000000e+10 in 1 cells on zone 900 

 turbulent viscosity limited to viscosity ratio of 1.000000e+05 in 186854 cells 
   245  4.2593e+08  5.6947e-02  8.6583e-02  1.3325e-01  3.2133e-02  9.6398e-01  4.5783e-01  0:21:40  255

 absolute pressure limited to 5.000000e+10 in 9 cells on zone 900 

 turbulent viscosity limited to viscosity ratio of 1.000000e+05 in 194711 cells 
   246  4.9722e+08  5.7851e-02  8.4441e-02  1.2403e-01  3.2591e-02  9.6859e-01  4.6108e-01  0:21:31  254

 absolute pressure limited to 5.000000e+10 in 17 cells on zone 900 

 turbulent viscosity limited to viscosity ratio of 1.000000e+05 in 199207 cells 
   247  6.1126e+08  5.6858e-02  8.3441e-02  1.2203e-01  3.0277e-02  9.8612e-01  4.8365e-01  0:21:24  253

 absolute pressure limited to 5.000000e+10 in 24 cells on zone 900 

 turbulent viscosity limited to viscosity ratio of 1.000000e+05 in 199791 cells 
   248  7.7113e+08  5.7397e-02  9.0601e-02  1.2153e-01  3.3310e-02  9.7885e-01  4.8003e-01  0:21:17  252

 absolute pressure limited to 5.000000e+10 in 82 cells on zone 900 

 turbulent viscosity limited to viscosity ratio of 1.000000e+05 in 199251 cells 
   249  9.6835e+08  5.8053e-02  9.9915e-02  1.2904e-01  3.2916e-02  9.9219e-01  4.9490e-01  0:21:10  251

 absolute pressure limited to 5.000000e+10 in 183 cells on zone 900 

 turbulent viscosity limited to viscosity ratio of 1.000000e+05 in 197638 cells 
   250  1.2367e+09  6.1976e-02  1.1349e-01  1.3083e-01  3.4542e-02  9.7022e-01  4.8310e-01  0:21:03  250

 absolute pressure limited to 5.000000e+10 in 234 cells on zone 900 

 turbulent viscosity limited to viscosity ratio of 1.000000e+05 in 197049 cells 
   251  1.4157e+09  6.8600e-02  1.2622e-01  1.4266e-01  3.4787e-02  9.4571e-01  4.6600e-01  0:20:56  249

 absolute pressure limited to 5.000000e+10 in 343 cells on zone 900 

 turbulent viscosity limited to viscosity ratio of 1.000000e+05 in 201896 cells 
   252  1.4989e+09  7.0155e-02  1.3792e-01  1.4679e-01  3.7638e-02  9.5348e-01  4.6414e-01  0:20:55  248

 absolute pressure limited to 5.000000e+10 in 5366 cells on zone 900 

 turbulent viscosity limited to viscosity ratio of 1.000000e+05 in 213592 cells 
   253  1.5191e+09  7.0814e-02  1.3353e-01  1.5293e-01  3.7212e-02  9.3405e-01  4.5916e-01  0:20:48  247

 absolute pressure limited to 5.000000e+10 in 10646 cells on zone 900 

 turbulent viscosity limited to viscosity ratio of 1.000000e+05 in 224737 cells 

  iter  continuity  x-velocity  y-velocity  z-velocity      energy           k       omega     time/iter
   254  1.5879e+09  7.1902e-02  1.3164e-01  1.5070e-01  3.8105e-02  9.4942e-01  4.6089e-01  0:20:42  246

 absolute pressure limited to 5.000000e+10 in 14007 cells on zone 900 

 turbulent viscosity limited to viscosity ratio of 1.000000e+05 in 225597 cells 
   255  1.7003e+09  7.4991e-02  1.3509e-01  1.4414e-01  3.8182e-02  9.5829e-01  4.6059e-01  0:20:36  245

 absolute pressure limited to 5.000000e+10 in 14831 cells on zone 900 

 turbulent viscosity limited to viscosity ratio of 1.000000e+05 in 221026 cells 
   256  1.6658e+09  7.3194e-02  1.2695e-01  1.3929e-01  3.9073e-02  9.8147e-01  4.7497e-01  0:20:30  244

 absolute pressure limited to 5.000000e+10 in 14216 cells on zone 900 

 turbulent viscosity limited to viscosity ratio of 1.000000e+05 in 216560 cells 
   257  1.8421e+09  7.6413e-02  1.2459e-01  1.4288e-01  3.8298e-02  9.9635e-01  4.9365e-01  0:20:25  243

 absolute pressure limited to 5.000000e+10 in 13733 cells on zone 900 

 turbulent viscosity limited to viscosity ratio of 1.000000e+05 in 214614 cells 
   258  2.2331e+09  8.1320e-02  1.3726e-01  1.4523e-01  4.0494e-02  9.9641e-01  4.9553e-01  0:20:19  242

 absolute pressure limited to 5.000000e+10 in 17466 cells on zone 900 

 turbulent viscosity limited to viscosity ratio of 1.000000e+05 in 215439 cells 
   259  2.6733e+09  8.6807e-02  1.4982e-01  1.5481e-01  3.9896e-02  9.9730e-01  4.9671e-01  0:20:13  241

 absolute pressure limited to 5.000000e+10 in 109691 cells on zone 900 

 turbulent viscosity limited to viscosity ratio of 1.000000e+05 in 217026 cells 
   260  2.7541e+09  8.6111e-02  1.7501e-01  1.6074e-01  4.0819e-02  9.9741e-01  4.9744e-01  0:20:08  240

 absolute pressure limited to 5.000000e+10 in 200602 cells on zone 900 

 turbulent viscosity limited to viscosity ratio of 1.000000e+05 in 218032 cells 
   261  2.5255e+09  8.5938e-02  1.7876e-01  1.6113e-01  3.7721e-02  9.9667e-01  4.9720e-01  0:20:02  239

 absolute pressure limited to 5.000000e+10 in 245735 cells on zone 900 

 turbulent viscosity limited to viscosity ratio of 1.000000e+05 in 220336 cells 
   262  2.7224e+09  9.0228e-02  1.8192e-01  1.7688e-01  4.9861e-02  9.9586e-01  4.9705e-01  0:20:01  238

 absolute pressure limited to 5.000000e+10 in 262301 cells on zone 900 

 turbulent viscosity limited to viscosity ratio of 1.000000e+05 in 228709 cells 
   263  3.3699e+09  8.7892e-02  1.6623e-01  1.8437e-01  5.0629e-02  1.0030e+00  5.0091e-01  0:20:00  237

 absolute pressure limited to 5.000000e+10 in 262878 cells on zone 900 

 turbulent viscosity limited to viscosity ratio of 1.000000e+05 in 212432 cells 
   264  4.0771e+09  7.1782e-02  1.7077e-01  1.7198e-01  4.7369e-02  1.0010e+00  5.0022e-01  0:19:58  236

 absolute pressure limited to 5.000000e+10 in 263087 cells on zone 900 

 turbulent viscosity limited to viscosity ratio of 1.000000e+05 in 208433 cells 

  iter  continuity  x-velocity  y-velocity  z-velocity      energy           k       omega     time/iter
   265  4.6761e+09  6.9231e-02  1.7770e-01  1.5836e-01  4.0133e-02  9.9956e-01  4.9872e-01  0:19:55  235

 absolute pressure limited to 5.000000e+10 in 263094 cells on zone 900 

 turbulent viscosity limited to viscosity ratio of 1.000000e+05 in 207589 cells 
   266  5.7472e+09  6.4684e-02  1.8781e-01  1.6936e-01  4.0152e-02  9.9811e-01  4.9740e-01  0:19:51  234

 absolute pressure limited to 5.000000e+10 in 263141 cells on zone 900 

 turbulent viscosity limited to viscosity ratio of 1.000000e+05 in 211063 cells 
   267  6.3354e+09  5.9593e-02  2.0118e-01  1.7617e-01  4.0018e-02  9.8826e-01  4.9291e-01  0:19:48  233

 absolute pressure limited to 5.000000e+10 in 263144 cells on zone 900 

 turbulent viscosity limited to viscosity ratio of 1.000000e+05 in 214474 cells 
   268  7.0085e+09  6.1473e-02  2.1075e-01  1.6697e-01  3.6497e-02  9.8507e-01  4.8821e-01  0:19:45  232

 absolute pressure limited to 5.000000e+10 in 263143 cells on zone 900 

 turbulent viscosity limited to viscosity ratio of 1.000000e+05 in 216922 cells 
   269  7.3909e+09  6.1702e-02  2.0668e-01  1.7195e-01  3.2520e-02  9.9847e-01  4.9824e-01  0:19:41  231

 absolute pressure limited to 5.000000e+10 in 263132 cells on zone 900 

 turbulent viscosity limited to viscosity ratio of 1.000000e+05 in 219738 cells 
   270  7.4275e+09  5.7654e-02  1.9577e-01  1.7990e-01  3.1575e-02  9.9457e-01  4.9674e-01  0:19:37  230

 absolute pressure limited to 5.000000e+10 in 263138 cells on zone 900 

 turbulent viscosity limited to viscosity ratio of 1.000000e+05 in 225033 cells 
   271  7.8620e+09  5.9540e-02  2.0013e-01  2.0072e-01  3.0922e-02  9.8647e-01  4.9448e-01  0:19:34  229

 absolute pressure limited to 5.000000e+10 in 263129 cells on zone 900 

 turbulent viscosity limited to viscosity ratio of 1.000000e+05 in 228639 cells 
   272  8.4217e+09  5.6022e-02  2.0380e-01  2.1462e-01  2.8537e-02  9.8714e-01  4.9174e-01  0:19:30  228

 absolute pressure limited to 5.000000e+10 in 263148 cells on zone 900 

 turbulent viscosity limited to viscosity ratio of 1.000000e+05 in 233388 cells 
   273  8.8095e+09  5.1905e-02  2.0767e-01  2.1645e-01  2.6518e-02  9.9521e-01  4.9501e-01  0:19:22  227

 absolute pressure limited to 5.000000e+10 in 263132 cells on zone 900 

 turbulent viscosity limited to viscosity ratio of 1.000000e+05 in 239367 cells 
   274  9.3796e+09  5.2421e-02  2.1439e-01  2.1852e-01  2.4629e-02  9.9504e-01  4.9563e-01  0:19:13  226

 absolute pressure limited to 5.000000e+10 in 263127 cells on zone 900 

 turbulent viscosity limited to viscosity ratio of 1.000000e+05 in 249045 cells 
   275  9.8591e+09  4.9336e-02  2.0276e-01  2.1514e-01  2.3886e-02  9.8656e-01  4.9211e-01  0:19:06  225

 absolute pressure limited to 5.000000e+10 in 263152 cells on zone 900 

 turbulent viscosity limited to viscosity ratio of 1.000000e+05 in 251237 cells 

  iter  continuity  x-velocity  y-velocity  z-velocity      energy           k       omega     time/iter
   276  1.0099e+10  5.1677e-02  2.0600e-01  2.1693e-01  2.1740e-02  9.8224e-01  4.8888e-01  0:19:00  224

 absolute pressure limited to 5.000000e+10 in 263150 cells on zone 900 

 turbulent viscosity limited to viscosity ratio of 1.000000e+05 in 252248 cells 
   277  1.0679e+10  4.8380e-02  2.0144e-01  2.1569e-01  2.1076e-02  9.8718e-01  4.9037e-01  0:18:53  223

 absolute pressure limited to 5.000000e+10 in 263145 cells on zone 900 

 turbulent viscosity limited to viscosity ratio of 1.000000e+05 in 253016 cells 
   278  1.0733e+10  4.5951e-02  2.0127e-01  2.1717e-01  2.0267e-02  9.9489e-01  4.9519e-01  0:18:48  222

 absolute pressure limited to 5.000000e+10 in 263127 cells on zone 900 

 turbulent viscosity limited to viscosity ratio of 1.000000e+05 in 253765 cells 
   279  1.0386e+10  4.4180e-02  1.9859e-01  2.1299e-01  2.0576e-02  9.9819e-01  4.9863e-01  0:18:42  221

 absolute pressure limited to 5.000000e+10 in 263117 cells on zone 900 

 turbulent viscosity limited to viscosity ratio of 1.000000e+05 in 254215 cells 
   280  1.0279e+10  4.6447e-02  1.9869e-01  2.1807e-01  2.1347e-02  9.9256e-01  4.9702e-01  0:18:36  220

 absolute pressure limited to 5.000000e+10 in 263126 cells on zone 900 

 turbulent viscosity limited to viscosity ratio of 1.000000e+05 in 254514 cells 
   281  1.0477e+10  4.6220e-02  1.9666e-01  2.1846e-01  2.1254e-02  9.9729e-01  4.9783e-01  0:18:30  219

 absolute pressure limited to 5.000000e+10 in 263115 cells on zone 900 

 turbulent viscosity limited to viscosity ratio of 1.000000e+05 in 254608 cells 
   282  1.0643e+10  4.3200e-02  1.9884e-01  2.1342e-01  2.2964e-02  9.9658e-01  4.9722e-01  0:18:25  218

 absolute pressure limited to 5.000000e+10 in 263114 cells on zone 900 

 turbulent viscosity limited to viscosity ratio of 1.000000e+05 in 255050 cells 
   283  1.0339e+10  4.3574e-02  1.9643e-01  2.0966e-01  2.4885e-02  9.9534e-01  4.9639e-01  0:18:20  217

 absolute pressure limited to 5.000000e+10 in 263135 cells on zone 900 

 turbulent viscosity limited to viscosity ratio of 1.000000e+05 in 254500 cells 
   284  1.0282e+10  4.8335e-02  2.0745e-01  2.0921e-01  2.4378e-02  9.8608e-01  4.9311e-01  0:18:16  216

 absolute pressure limited to 5.000000e+10 in 263114 cells on zone 900 

 turbulent viscosity limited to viscosity ratio of 1.000000e+05 in 254841 cells 
   285  1.0057e+10  4.6482e-02  2.0604e-01  1.9937e-01  2.4823e-02  9.9526e-01  4.9611e-01  0:18:11  215

 absolute pressure limited to 5.000000e+10 in 263074 cells on zone 900 

 turbulent viscosity limited to viscosity ratio of 1.000000e+05 in 254085 cells 
   286  9.4958e+09  4.4853e-02  2.0423e-01  1.9926e-01  2.5532e-02  9.9906e-01  4.9896e-01  0:18:07  214

 absolute pressure limited to 5.000000e+10 in 263117 cells on zone 900 

 turbulent viscosity limited to viscosity ratio of 1.000000e+05 in 254988 cells 

  iter  continuity  x-velocity  y-velocity  z-velocity      energy           k       omega     time/iter
   287  9.4527e+09  4.5812e-02  2.0587e-01  1.9898e-01  2.7277e-02  9.9552e-01  4.9775e-01  0:18:01  213

 absolute pressure limited to 5.000000e+10 in 263094 cells on zone 900 

 turbulent viscosity limited to viscosity ratio of 1.000000e+05 in 253938 cells 
   288  9.2167e+09  4.7716e-02  2.1022e-01  1.9845e-01  2.6305e-02  9.9013e-01  4.9573e-01  0:17:57  212

 absolute pressure limited to 5.000000e+10 in 263121 cells on zone 900 

 turbulent viscosity limited to viscosity ratio of 1.000000e+05 in 254864 cells 
   289  9.3842e+09  4.5801e-02  2.0423e-01  1.9531e-01  2.5331e-02  9.9204e-01  4.9434e-01  0:17:52  211

 absolute pressure limited to 5.000000e+10 in 263099 cells on zone 900 

 turbulent viscosity limited to viscosity ratio of 1.000000e+05 in 253818 cells 
   290  9.4354e+09  4.4558e-02  2.0070e-01  1.8646e-01  2.3924e-02  9.9859e-01  4.9833e-01  0:17:47  210

 absolute pressure limited to 5.000000e+10 in 263093 cells on zone 900 

 turbulent viscosity limited to viscosity ratio of 1.000000e+05 in 254687 cells 
   291  8.8925e+09  4.4132e-02  1.9586e-01  1.7748e-01  2.6456e-02  9.9464e-01  4.9681e-01  0:17:42  209

 absolute pressure limited to 5.000000e+10 in 263062 cells on zone 900 

 turbulent viscosity limited to viscosity ratio of 1.000000e+05 in 253541 cells 
   292  8.7713e+09  4.9806e-02  1.9896e-01  1.7881e-01  2.6887e-02  9.9194e-01  4.9545e-01  0:17:37  208

 absolute pressure limited to 5.000000e+10 in 263101 cells on zone 900 

 turbulent viscosity limited to viscosity ratio of 1.000000e+05 in 254762 cells 
   293  8.5968e+09  5.0243e-02  2.0303e-01  1.8369e-01  2.8081e-02  9.9756e-01  4.9772e-01  0:17:32  207

 absolute pressure limited to 5.000000e+10 in 263114 cells on zone 900 

 turbulent viscosity limited to viscosity ratio of 1.000000e+05 in 254363 cells 
   294  8.6472e+09  5.2755e-02  2.1098e-01  1.9569e-01  2.6019e-02  9.9778e-01  4.9790e-01  0:17:27  206

 absolute pressure limited to 5.000000e+10 in 263115 cells on zone 900 

 turbulent viscosity limited to viscosity ratio of 1.000000e+05 in 254692 cells 
   295  9.0109e+09  5.0187e-02  2.0649e-01  1.9198e-01  2.4924e-02  9.9784e-01  4.9800e-01  0:17:21  205

 absolute pressure limited to 5.000000e+10 in 263113 cells on zone 900 

 turbulent viscosity limited to viscosity ratio of 1.000000e+05 in 254443 cells 
   296  9.0226e+09  4.8899e-02  2.0738e-01  1.8384e-01  2.2707e-02  9.9549e-01  4.9682e-01  0:17:16  204

 absolute pressure limited to 5.000000e+10 in 263089 cells on zone 900 

 turbulent viscosity limited to viscosity ratio of 1.000000e+05 in 254677 cells 
   297  8.8856e+09  4.8369e-02  2.0405e-01  1.8215e-01  2.2937e-02  9.8394e-01  4.9338e-01  0:17:11  203

 absolute pressure limited to 5.000000e+10 in 263107 cells on zone 900 

 turbulent viscosity limited to viscosity ratio of 1.000000e+05 in 254336 cells 

  iter  continuity  x-velocity  y-velocity  z-velocity      energy           k       omega     time/iter
   298  8.8088e+09  5.2105e-02  2.0128e-01  1.8501e-01  2.1996e-02  9.9487e-01  4.9538e-01  0:17:06  202

 absolute pressure limited to 5.000000e+10 in 263124 cells on zone 900 

 turbulent viscosity limited to viscosity ratio of 1.000000e+05 in 254720 cells 
   299  9.0609e+09  5.0614e-02  1.9315e-01  1.9087e-01  2.2136e-02  9.9737e-01  4.9761e-01  0:17:01  201

 absolute pressure limited to 5.000000e+10 in 263114 cells on zone 900 

 turbulent viscosity limited to viscosity ratio of 1.000000e+05 in 254441 cells 
   300  9.1773e+09  4.6600e-02  1.8785e-01  1.9616e-01  2.1880e-02  9.9349e-01  4.9591e-01  0:16:56  200

 absolute pressure limited to 5.000000e+10 in 263100 cells on zone 900 

 turbulent viscosity limited to viscosity ratio of 1.000000e+05 in 254729 cells 
   301  8.7797e+09  4.6523e-02  1.9384e-01  1.9363e-01  2.2674e-02  9.9747e-01  4.9779e-01  0:16:50  199

 absolute pressure limited to 5.000000e+10 in 263121 cells on zone 900 

 turbulent viscosity limited to viscosity ratio of 1.000000e+05 in 254662 cells 
   302  9.1584e+09  4.6639e-02  1.9855e-01  2.0102e-01  2.2285e-02  9.9262e-01  4.9560e-01  0:16:45  198

 absolute pressure limited to 5.000000e+10 in 263129 cells on zone 900 

 turbulent viscosity limited to viscosity ratio of 1.000000e+05 in 254779 cells 
   303  9.6729e+09  4.4925e-02  2.0004e-01  1.9239e-01  2.1702e-02  9.8350e-01  4.9155e-01  0:16:40  197

 absolute pressure limited to 5.000000e+10 in 263121 cells on zone 900 

 turbulent viscosity limited to viscosity ratio of 1.000000e+05 in 254653 cells 
   304  9.3725e+09  4.3336e-02  1.9440e-01  1.8394e-01  2.2142e-02  9.9204e-01  4.9291e-01  0:16:34  196

 absolute pressure limited to 5.000000e+10 in 263106 cells on zone 900 

 turbulent viscosity limited to viscosity ratio of 1.000000e+05 in 254882 cells 
   305  9.0909e+09  4.5450e-02  2.0169e-01  1.8258e-01  2.2648e-02  9.9277e-01  4.9407e-01  0:16:30  195

 absolute pressure limited to 5.000000e+10 in 263134 cells on zone 900 

 turbulent viscosity limited to viscosity ratio of 1.000000e+05 in 254601 cells 
   306  9.5422e+09  4.5238e-02  1.9878e-01  1.8787e-01  2.3238e-02  9.8644e-01  4.9097e-01  0:16:25  194

 absolute pressure limited to 5.000000e+10 in 263071 cells on zone 900 

 turbulent viscosity limited to viscosity ratio of 1.000000e+05 in 254856 cells 
   307  9.3198e+09  4.3578e-02  2.0072e-01  1.8922e-01  2.2415e-02  9.8720e-01  4.8999e-01  0:16:19  193

 absolute pressure limited to 5.000000e+10 in 263125 cells on zone 900 

 turbulent viscosity limited to viscosity ratio of 1.000000e+05 in 254641 cells 
   308  9.1887e+09  4.1892e-02  2.0211e-01  1.8813e-01  2.3577e-02  9.9222e-01  4.9213e-01  0:16:14  192

 absolute pressure limited to 5.000000e+10 in 263101 cells on zone 900 

 turbulent viscosity limited to viscosity ratio of 1.000000e+05 in 254827 cells 

  iter  continuity  x-velocity  y-velocity  z-velocity      energy           k       omega     time/iter
   309  9.2122e+09  4.7977e-02  2.0402e-01  1.8862e-01  2.3957e-02  9.7966e-01  4.8845e-01  0:16:09  191

 absolute pressure limited to 5.000000e+10 in 263127 cells on zone 900 

 turbulent viscosity limited to viscosity ratio of 1.000000e+05 in 254554 cells 
   310  9.3835e+09  4.6758e-02  2.0981e-01  1.9056e-01  2.2873e-02  9.8884e-01  4.8984e-01  0:16:04  190

 absolute pressure limited to 5.000000e+10 in 263121 cells on zone 900 

 turbulent viscosity limited to viscosity ratio of 1.000000e+05 in 254608 cells 
   311  9.7253e+09  4.3104e-02  2.0406e-01  1.8330e-01  2.1649e-02  9.8063e-01  4.8419e-01  0:15:59  189

 absolute pressure limited to 5.000000e+10 in 263109 cells on zone 900 

 turbulent viscosity limited to viscosity ratio of 1.000000e+05 in 254520 cells 
   312  9.4406e+09  4.5580e-02  2.0470e-01  1.7498e-01  2.0691e-02  9.7625e-01  4.8203e-01  0:15:54  188

 absolute pressure limited to 5.000000e+10 in 263129 cells on zone 900 

 turbulent viscosity limited to viscosity ratio of 1.000000e+05 in 254577 cells 
   313  9.5685e+09  4.5337e-02  1.9572e-01  1.7502e-01  2.1544e-02  9.9828e-01  4.9872e-01  0:15:48  187

 absolute pressure limited to 5.000000e+10 in 263105 cells on zone 900 

 turbulent viscosity limited to viscosity ratio of 1.000000e+05 in 254542 cells 
   314  9.5159e+09  4.6196e-02  1.9715e-01  1.7997e-01  2.0946e-02  9.9884e-01  4.9896e-01  0:15:43  186

 absolute pressure limited to 5.000000e+10 in 263109 cells on zone 900 

 turbulent viscosity limited to viscosity ratio of 1.000000e+05 in 254755 cells 
   315  9.5093e+09  4.5978e-02  1.9020e-01  1.8961e-01  2.1265e-02  9.9949e-01  4.9953e-01  0:15:36  185

 absolute pressure limited to 5.000000e+10 in 263141 cells on zone 900 

 turbulent viscosity limited to viscosity ratio of 1.000000e+05 in 254541 cells 
   316  1.0072e+10  4.7761e-02  1.9855e-01  1.9054e-01  1.9721e-02  9.9962e-01  4.9963e-01  0:15:29  184

 absolute pressure limited to 5.000000e+10 in 263112 cells on zone 900 

 turbulent viscosity limited to viscosity ratio of 1.000000e+05 in 254691 cells 
   317  1.0128e+10  4.3588e-02  1.9565e-01  1.8813e-01  1.9666e-02  9.9778e-01  4.9902e-01  0:15:22  183

 absolute pressure limited to 5.000000e+10 in 263122 cells on zone 900 

 turbulent viscosity limited to viscosity ratio of 1.000000e+05 in 254536 cells 
   318  9.9780e+09  4.2980e-02  1.8863e-01  1.8802e-01  2.3765e-02  9.8909e-01  4.9779e-01  0:15:16  182

 absolute pressure limited to 5.000000e+10 in 263123 cells on zone 900 

 turbulent viscosity limited to viscosity ratio of 1.000000e+05 in 254810 cells 
   319  1.0232e+10  4.9185e-02  1.9720e-01  1.9453e-01  2.3356e-02  9.9223e-01  4.9633e-01  0:15:10  181

 absolute pressure limited to 5.000000e+10 in 263129 cells on zone 900 

 turbulent viscosity limited to viscosity ratio of 1.000000e+05 in 254642 cells 

  iter  continuity  x-velocity  y-velocity  z-velocity      energy           k       omega     time/iter
   320  1.0859e+10  4.1229e-02  1.8118e-01  1.9917e-01  2.2617e-02  9.9023e-01  4.9392e-01  0:15:07  180

 absolute pressure limited to 5.000000e+10 in 263114 cells on zone 900 

 turbulent viscosity limited to viscosity ratio of 1.000000e+05 in 254965 cells 
   321  1.0711e+10  4.3371e-02  1.9339e-01  1.9142e-01  2.1979e-02  9.9213e-01  4.9317e-01  0:15:03  179

 absolute pressure limited to 5.000000e+10 in 263120 cells on zone 900 

 turbulent viscosity limited to viscosity ratio of 1.000000e+05 in 254679 cells 
   322  1.0843e+10  4.3165e-02  1.9561e-01  1.9582e-01  2.2581e-02  9.8394e-01  4.9129e-01  0:14:59  178

 absolute pressure limited to 5.000000e+10 in 263129 cells on zone 900 

 turbulent viscosity limited to viscosity ratio of 1.000000e+05 in 254934 cells 
   323  1.1439e+10  4.6248e-02  1.9730e-01  1.9971e-01  2.1015e-02  9.9224e-01  4.9329e-01  0:14:55  177

 absolute pressure limited to 5.000000e+10 in 263097 cells on zone 900 

 turbulent viscosity limited to viscosity ratio of 1.000000e+05 in 254637 cells 
   324  1.1362e+10  4.2115e-02  1.8579e-01  1.9885e-01  2.2568e-02  9.9049e-01  4.9286e-01  0:14:50  176

 absolute pressure limited to 5.000000e+10 in 263114 cells on zone 900 

 turbulent viscosity limited to viscosity ratio of 1.000000e+05 in 255069 cells 
   325  1.1197e+10  4.5504e-02  1.8833e-01  1.9991e-01  2.2674e-02  9.8986e-01  4.9181e-01  0:14:45  175

 absolute pressure limited to 5.000000e+10 in 263129 cells on zone 900 

 turbulent viscosity limited to viscosity ratio of 1.000000e+05 in 255022 cells 
   326  1.1902e+10  4.1992e-02  1.7823e-01  2.0046e-01  2.4106e-02  9.9515e-01  4.9615e-01  0:14:41  174

 absolute pressure limited to 5.000000e+10 in 263125 cells on zone 900 

 turbulent viscosity limited to viscosity ratio of 1.000000e+05 in 255182 cells 
   327  1.2155e+10  4.2211e-02  1.9067e-01  2.0653e-01  2.2311e-02  9.9109e-01  4.9418e-01  0:14:36  173

 absolute pressure limited to 5.000000e+10 in 263134 cells on zone 900 

 turbulent viscosity limited to viscosity ratio of 1.000000e+05 in 255163 cells 
   328  1.2900e+10  4.0649e-02  1.8591e-01  2.1105e-01  2.4952e-02  9.8710e-01  4.9131e-01  0:14:32  172

 absolute pressure limited to 5.000000e+10 in 263119 cells on zone 900 

 turbulent viscosity limited to viscosity ratio of 1.000000e+05 in 255275 cells 
   329  1.3538e+10  4.2903e-02  1.8971e-01  2.1052e-01  2.2971e-02  9.7554e-01  4.8562e-01  0:14:28  171

 absolute pressure limited to 5.000000e+10 in 263126 cells on zone 900 

 turbulent viscosity limited to viscosity ratio of 1.000000e+05 in 255210 cells 
   330  1.4019e+10  4.0023e-02  1.8491e-01  2.0768e-01  2.3766e-02  9.9696e-01  4.9735e-01  0:14:23  170

 absolute pressure limited to 5.000000e+10 in 263122 cells on zone 900 

 turbulent viscosity limited to viscosity ratio of 1.000000e+05 in 255287 cells 

  iter  continuity  x-velocity  y-velocity  z-velocity      energy           k       omega     time/iter
   331  1.4136e+10  4.1768e-02  1.9158e-01  2.1232e-01  2.2974e-02  9.9395e-01  4.9616e-01  0:14:17  169

 absolute pressure limited to 5.000000e+10 in 263111 cells on zone 900 

 turbulent viscosity limited to viscosity ratio of 1.000000e+05 in 255294 cells 
   332  1.4550e+10  3.7016e-02  1.8865e-01  2.1312e-01  2.3847e-02  9.8855e-01  4.9339e-01  0:14:11  168

 absolute pressure limited to 5.000000e+10 in 263122 cells on zone 900 

 turbulent viscosity limited to viscosity ratio of 1.000000e+05 in 255467 cells 
   333  1.5041e+10  4.0009e-02  1.9190e-01  2.2168e-01  2.2947e-02  9.9902e-01  4.9903e-01  0:14:07  167

 absolute pressure limited to 5.000000e+10 in 263140 cells on zone 900 

 turbulent viscosity limited to viscosity ratio of 1.000000e+05 in 255327 cells 
   334  1.5981e+10  3.8085e-02  1.9128e-01  2.2001e-01  2.2658e-02  9.9956e-01  4.9953e-01  0:14:02  166

 absolute pressure limited to 5.000000e+10 in 263116 cells on zone 900 

 turbulent viscosity limited to viscosity ratio of 1.000000e+05 in 255497 cells 
   335  1.6016e+10  3.8174e-02  1.9538e-01  2.1595e-01  2.1181e-02  9.9750e-01  4.9881e-01  0:13:57  165

 absolute pressure limited to 5.000000e+10 in 263091 cells on zone 900 

 turbulent viscosity limited to viscosity ratio of 1.000000e+05 in 255392 cells 
   336  1.5490e+10  3.6323e-02  1.8832e-01  2.1003e-01  2.0851e-02  9.9472e-01  4.9778e-01  0:13:52  164

 absolute pressure limited to 5.000000e+10 in 263133 cells on zone 900 

 turbulent viscosity limited to viscosity ratio of 1.000000e+05 in 255593 cells 
   337  1.5727e+10  4.0486e-02  1.9451e-01  2.0920e-01  2.0549e-02  9.8308e-01  4.9563e-01  0:13:47  163

 absolute pressure limited to 5.000000e+10 in 263119 cells on zone 900 

 turbulent viscosity limited to viscosity ratio of 1.000000e+05 in 255487 cells 
   338  1.5828e+10  3.9442e-02  1.9449e-01  2.0872e-01  2.3149e-02  9.7068e-01  4.9137e-01  0:13:44  162

 absolute pressure limited to 5.000000e+10 in 263101 cells on zone 900 

 turbulent viscosity limited to viscosity ratio of 1.000000e+05 in 255654 cells 
   339  1.5560e+10  3.6304e-02  1.9610e-01  2.0899e-01  2.2448e-02  9.9444e-01  4.9443e-01  0:13:39  161

 absolute pressure limited to 5.000000e+10 in 263102 cells on zone 900 

 turbulent viscosity limited to viscosity ratio of 1.000000e+05 in 255486 cells 
   340  1.5552e+10  3.9098e-02  2.0157e-01  2.0122e-01  2.1880e-02  9.9682e-01  4.9702e-01  0:13:34  160

 absolute pressure limited to 5.000000e+10 in 263074 cells on zone 900 

 turbulent viscosity limited to viscosity ratio of 1.000000e+05 in 255657 cells 
   341  1.4975e+10  3.7867e-02  1.9937e-01  1.9431e-01  2.2685e-02  9.9552e-01  4.9657e-01  0:13:28  159

 absolute pressure limited to 5.000000e+10 in 263094 cells on zone 900 

 turbulent viscosity limited to viscosity ratio of 1.000000e+05 in 255594 cells 

  iter  continuity  x-velocity  y-velocity  z-velocity      energy           k       omega     time/iter
   342  1.4965e+10  3.9612e-02  2.0097e-01  1.9265e-01  2.3649e-02  9.9104e-01  4.9422e-01  0:13:24  158

 absolute pressure limited to 5.000000e+10 in 263093 cells on zone 900 

 turbulent viscosity limited to viscosity ratio of 1.000000e+05 in 255620 cells 
   343  1.5061e+10  3.9618e-02  2.0817e-01  1.8894e-01  2.2623e-02  9.9617e-01  4.9583e-01  0:13:18  157

 absolute pressure limited to 5.000000e+10 in 263085 cells on zone 900 

 turbulent viscosity limited to viscosity ratio of 1.000000e+05 in 255505 cells 
   344  1.4736e+10  3.7761e-02  2.0520e-01  1.8774e-01  2.3216e-02  9.9464e-01  4.9527e-01  0:13:12  156

 absolute pressure limited to 5.000000e+10 in 263099 cells on zone 900 

 turbulent viscosity limited to viscosity ratio of 1.000000e+05 in 255506 cells 
   345  1.4510e+10  3.8043e-02  2.0183e-01  1.8211e-01  2.3763e-02  9.9275e-01  4.9419e-01  0:13:07  155

 absolute pressure limited to 5.000000e+10 in 263081 cells on zone 900 

 turbulent viscosity limited to viscosity ratio of 1.000000e+05 in 255443 cells 
   346  1.4186e+10  3.9552e-02  2.0724e-01  1.7982e-01  2.2479e-02  9.9900e-01  4.9847e-01  0:13:02  154

 absolute pressure limited to 5.000000e+10 in 263093 cells on zone 900 

 turbulent viscosity limited to viscosity ratio of 1.000000e+05 in 255473 cells 
   347  1.3869e+10  3.7083e-02  1.9496e-01  1.7698e-01  2.2902e-02  9.9548e-01  4.9711e-01  0:13:05  153

 absolute pressure limited to 5.000000e+10 in 263081 cells on zone 900 

 turbulent viscosity limited to viscosity ratio of 1.000000e+05 in 255398 cells 
   348  1.3578e+10  4.0562e-02  2.0128e-01  1.8200e-01  2.2208e-02  9.8997e-01  4.9489e-01  0:12:58  152

 absolute pressure limited to 5.000000e+10 in 263107 cells on zone 900 

 turbulent viscosity limited to viscosity ratio of 1.000000e+05 in 255431 cells 
   349  1.3709e+10  3.8764e-02  1.9897e-01  1.8250e-01  2.0992e-02  9.9826e-01  4.9811e-01  0:12:52  151

 absolute pressure limited to 5.000000e+10 in 263088 cells on zone 900 

 turbulent viscosity limited to viscosity ratio of 1.000000e+05 in 255352 cells 
   350  1.3368e+10  3.8342e-02  1.9712e-01  1.8111e-01  2.2785e-02  9.9687e-01  4.9777e-01  0:12:46  150

 absolute pressure limited to 5.000000e+10 in 263083 cells on zone 900 

 turbulent viscosity limited to viscosity ratio of 1.000000e+05 in 255454 cells 
   351  1.3141e+10  3.8165e-02  1.9820e-01  1.7643e-01  2.2413e-02  9.9372e-01  4.9663e-01  0:12:40  149

 absolute pressure limited to 5.000000e+10 in 263107 cells on zone 900 

 turbulent viscosity limited to viscosity ratio of 1.000000e+05 in 255396 cells 
   352  1.3053e+10  4.1192e-02  2.0002e-01  1.7749e-01  2.1366e-02  9.9660e-01  4.9727e-01  0:12:35  148

 absolute pressure limited to 5.000000e+10 in 263099 cells on zone 900 

 turbulent viscosity limited to viscosity ratio of 1.000000e+05 in 255432 cells 

  iter  continuity  x-velocity  y-velocity  z-velocity      energy           k       omega     time/iter
   353  1.2841e+10  3.9234e-02  1.9583e-01  1.7680e-01  2.1477e-02  9.9526e-01  4.9616e-01  0:12:29  147

 absolute pressure limited to 5.000000e+10 in 263088 cells on zone 900 

 turbulent viscosity limited to viscosity ratio of 1.000000e+05 in 255328 cells 
   354  1.2352e+10  3.8817e-02  1.9433e-01  1.7592e-01  2.2391e-02  9.8703e-01  4.9273e-01  0:12:23  146

 absolute pressure limited to 5.000000e+10 in 263092 cells on zone 900 

 turbulent viscosity limited to viscosity ratio of 1.000000e+05 in 255351 cells 
   355  1.2430e+10  3.9789e-02  1.9429e-01  1.7941e-01  2.3377e-02  9.9444e-01  4.9518e-01  0:12:18  145

 absolute pressure limited to 5.000000e+10 in 263103 cells on zone 900 

 turbulent viscosity limited to viscosity ratio of 1.000000e+05 in 255265 cells 
   356  1.2650e+10  4.1103e-02  2.0208e-01  1.8526e-01  2.2252e-02  9.9889e-01  4.9879e-01  0:12:12  144

 absolute pressure limited to 5.000000e+10 in 263108 cells on zone 900 

 turbulent viscosity limited to viscosity ratio of 1.000000e+05 in 255292 cells 
   357  1.2541e+10  3.9545e-02  1.9940e-01  1.8116e-01  2.2823e-02  9.9871e-01  4.9865e-01  0:12:07  143

 absolute pressure limited to 5.000000e+10 in 263103 cells on zone 900 

 turbulent viscosity limited to viscosity ratio of 1.000000e+05 in 255177 cells 
   358  1.2366e+10  4.2087e-02  2.0115e-01  1.7946e-01  2.1966e-02  9.9467e-01  4.9723e-01  0:12:02  142

 absolute pressure limited to 5.000000e+10 in 263087 cells on zone 900 

 turbulent viscosity limited to viscosity ratio of 1.000000e+05 in 255215 cells 
   359  1.2217e+10  3.8547e-02  1.9537e-01  1.7582e-01  2.2063e-02  9.8946e-01  4.9490e-01  0:11:57  141

 absolute pressure limited to 5.000000e+10 in 263085 cells on zone 900 

 turbulent viscosity limited to viscosity ratio of 1.000000e+05 in 255275 cells 
   360  1.1947e+10  3.9290e-02  1.9612e-01  1.7638e-01  2.3298e-02  9.8318e-01  4.9113e-01  0:11:51  140

 absolute pressure limited to 5.000000e+10 in 263126 cells on zone 900 

 turbulent viscosity limited to viscosity ratio of 1.000000e+05 in 255345 cells 
   361  1.2033e+10  4.1714e-02  2.0073e-01  1.7991e-01  2.2747e-02  9.8197e-01  4.8776e-01  0:11:46  139

 absolute pressure limited to 5.000000e+10 in 263109 cells on zone 900 

 turbulent viscosity limited to viscosity ratio of 1.000000e+05 in 255363 cells 
   362  1.1988e+10  3.9710e-02  1.9162e-01  1.8523e-01  2.1439e-02  9.9016e-01  4.9046e-01  0:11:41  138

 absolute pressure limited to 5.000000e+10 in 263135 cells on zone 900 

 turbulent viscosity limited to viscosity ratio of 1.000000e+05 in 255332 cells 
   363  1.1728e+10  3.9292e-02  1.9156e-01  1.8766e-01  2.0490e-02  9.9268e-01  4.9263e-01  0:11:36  137

 absolute pressure limited to 5.000000e+10 in 263107 cells on zone 900 

 turbulent viscosity limited to viscosity ratio of 1.000000e+05 in 255232 cells 

  iter  continuity  x-velocity  y-velocity  z-velocity      energy           k       omega     time/iter
   364  1.1730e+10  4.1808e-02  1.9505e-01  1.8769e-01  1.9150e-02  9.8628e-01  4.8989e-01  0:11:31  136

 absolute pressure limited to 5.000000e+10 in 263107 cells on zone 900 

 turbulent viscosity limited to viscosity ratio of 1.000000e+05 in 255223 cells 
   365  1.1491e+10  4.3286e-02  1.9322e-01  1.8894e-01  1.9908e-02  9.7086e-01  4.8345e-01  0:11:25  135

 absolute pressure limited to 5.000000e+10 in 263065 cells on zone 900 

 turbulent viscosity limited to viscosity ratio of 1.000000e+05 in 255173 cells 
   366  1.1028e+10  4.2675e-02  1.9075e-01  1.8515e-01  2.1737e-02  9.9345e-01  4.9350e-01  0:11:20  134

 absolute pressure limited to 5.000000e+10 in 263100 cells on zone 900 

 turbulent viscosity limited to viscosity ratio of 1.000000e+05 in 255198 cells 
   367  1.0848e+10  4.4784e-02  1.9356e-01  1.9174e-01  2.2935e-02  9.9331e-01  4.9376e-01  0:11:15  133

 absolute pressure limited to 5.000000e+10 in 263098 cells on zone 900 

 turbulent viscosity limited to viscosity ratio of 1.000000e+05 in 255174 cells 
   368  1.1102e+10  4.3799e-02  1.9823e-01  1.9365e-01  2.5013e-02  9.9693e-01  4.9687e-01  0:11:11  132

 absolute pressure limited to 5.000000e+10 in 263138 cells on zone 900 

 turbulent viscosity limited to viscosity ratio of 1.000000e+05 in 255050 cells 
   369  1.1475e+10  4.3039e-02  2.0824e-01  1.9388e-01  2.3996e-02  9.9258e-01  4.9476e-01  0:11:06  131

 absolute pressure limited to 5.000000e+10 in 263108 cells on zone 900 

 turbulent viscosity limited to viscosity ratio of 1.000000e+05 in 255132 cells 
   370  1.1335e+10  4.4327e-02  2.1464e-01  1.9080e-01  2.2299e-02  9.9563e-01  4.9616e-01  0:11:01  130

 absolute pressure limited to 5.000000e+10 in 263088 cells on zone 900 

 turbulent viscosity limited to viscosity ratio of 1.000000e+05 in 255156 cells 
   371  1.1084e+10  4.2274e-02  2.1220e-01  1.8920e-01  2.2892e-02  9.8404e-01  4.9279e-01  0:10:55  129

 absolute pressure limited to 5.000000e+10 in 263100 cells on zone 900 

 turbulent viscosity limited to viscosity ratio of 1.000000e+05 in 255190 cells 
   372  1.1057e+10  4.3981e-02  2.1277e-01  1.9466e-01  2.2621e-02  9.8213e-01  4.8928e-01  0:10:50  128

 absolute pressure limited to 5.000000e+10 in 263104 cells on zone 900 

 turbulent viscosity limited to viscosity ratio of 1.000000e+05 in 255109 cells 
   373  1.1031e+10  4.4151e-02  2.1105e-01  1.9323e-01  2.3091e-02  9.8375e-01  4.8783e-01  0:10:44  127

 absolute pressure limited to 5.000000e+10 in 263127 cells on zone 900 

 turbulent viscosity limited to viscosity ratio of 1.000000e+05 in 255272 cells 
   374  1.1087e+10  4.2586e-02  2.1290e-01  1.9393e-01  2.2981e-02  9.9125e-01  4.9249e-01  0:10:39  126

 absolute pressure limited to 5.000000e+10 in 263118 cells on zone 900 

 turbulent viscosity limited to viscosity ratio of 1.000000e+05 in 255061 cells 

  iter  continuity  x-velocity  y-velocity  z-velocity      energy           k       omega     time/iter
   375  1.1058e+10  4.4454e-02  2.1709e-01  1.9295e-01  2.1936e-02  9.7916e-01  4.8808e-01  0:10:34  125

 absolute pressure limited to 5.000000e+10 in 263088 cells on zone 900 

 turbulent viscosity limited to viscosity ratio of 1.000000e+05 in 255231 cells 
   376  1.0829e+10  4.1975e-02  2.0969e-01  1.9700e-01  2.1379e-02  9.9889e-01  4.9754e-01  0:10:29  124

 absolute pressure limited to 5.000000e+10 in 263091 cells on zone 900 

 turbulent viscosity limited to viscosity ratio of 1.000000e+05 in 255040 cells 
   377  1.0678e+10  4.2624e-02  1.9508e-01  1.9488e-01  2.3343e-02  9.9473e-01  4.9486e-01  0:10:24  123

 absolute pressure limited to 5.000000e+10 in 263126 cells on zone 900 

 turbulent viscosity limited to viscosity ratio of 1.000000e+05 in 255083 cells 
   378  1.0727e+10  4.6343e-02  2.0713e-01  1.9428e-01  2.2833e-02  9.8539e-01  4.9171e-01  0:10:19  122

 absolute pressure limited to 5.000000e+10 in 263113 cells on zone 900 

 turbulent viscosity limited to viscosity ratio of 1.000000e+05 in 254862 cells 
   379  1.0914e+10  4.3116e-02  2.0355e-01  1.9642e-01  2.1832e-02  9.9753e-01  4.9715e-01  0:10:14  121

 absolute pressure limited to 5.000000e+10 in 263101 cells on zone 900 

 turbulent viscosity limited to viscosity ratio of 1.000000e+05 in 255059 cells 
   380  1.0666e+10  4.2762e-02  2.0028e-01  1.9349e-01  2.2399e-02  9.8953e-01  4.9468e-01  0:10:09  120

 absolute pressure limited to 5.000000e+10 in 263104 cells on zone 900 

 turbulent viscosity limited to viscosity ratio of 1.000000e+05 in 254918 cells 
   381  1.0657e+10  4.4424e-02  2.0518e-01  1.9660e-01  2.3100e-02  9.8396e-01  4.9157e-01  0:10:04  119

 absolute pressure limited to 5.000000e+10 in 263128 cells on zone 900 

 turbulent viscosity limited to viscosity ratio of 1.000000e+05 in 254976 cells 
   382  1.0925e+10  4.7075e-02  2.0022e-01  1.9713e-01  2.1842e-02  9.7983e-01  4.8884e-01  0:09:59  118

 absolute pressure limited to 5.000000e+10 in 263099 cells on zone 900 

 turbulent viscosity limited to viscosity ratio of 1.000000e+05 in 254896 cells 
   383  1.0841e+10  4.4351e-02  2.0066e-01  1.9539e-01  2.2137e-02  9.8698e-01  4.8974e-01  0:09:54  117

 absolute pressure limited to 5.000000e+10 in 263114 cells on zone 900 

 turbulent viscosity limited to viscosity ratio of 1.000000e+05 in 254872 cells 
   384  1.0835e+10  4.0716e-02  1.9628e-01  1.9647e-01  2.3706e-02  9.8547e-01  4.8807e-01  0:09:49  116

 absolute pressure limited to 5.000000e+10 in 263097 cells on zone 900 

 turbulent viscosity limited to viscosity ratio of 1.000000e+05 in 254956 cells 
   385  1.0534e+10  4.4831e-02  2.1016e-01  1.9047e-01  2.3632e-02  9.8198e-01  4.8696e-01  0:09:43  115

 absolute pressure limited to 5.000000e+10 in 263113 cells on zone 900 

[...]

 turbulent viscosity limited to viscosity ratio of 1.000000e+05 in 254698 cells 
   450  8.1862e+09  4.8219e-02  1.9805e-01  1.8402e-01  2.3346e-02  9.9533e-01  4.9599e-01  0:04:13   50

 absolute pressure limited to 5.000000e+10 in 263122 cells on zone 900 

 turbulent viscosity limited to viscosity ratio of 1.000000e+05 in 254815 cells 
   451  8.3692e+09  5.1609e-02  1.9252e-01  1.8678e-01  2.2268e-02  9.9413e-01  4.9550e-01  0:04:08   49

 absolute pressure limited to 5.000000e+10 in 263123 cells on zone 900 

 turbulent viscosity limited to viscosity ratio of 1.000000e+05 in 254667 cells 

  iter  continuity  x-velocity  y-velocity  z-velocity      energy           k       omega     time/iter
   452  8.2454e+09  4.7569e-02  1.9285e-01  1.9141e-01  2.1860e-02  9.9783e-01  4.9794e-01  0:04:03   48

 absolute pressure limited to 5.000000e+10 in 263127 cells on zone 900 

 turbulent viscosity limited to viscosity ratio of 1.000000e+05 in 254703 cells 
   453  8.1798e+09  5.0319e-02  1.9082e-01  1.9488e-01  2.3600e-02  9.9325e-01  4.9646e-01  0:03:58   47

 absolute pressure limited to 5.000000e+10 in 263127 cells on zone 900 

 turbulent viscosity limited to viscosity ratio of 1.000000e+05 in 254507 cells 
   454  8.0882e+09  5.1423e-02  1.9306e-01  2.0101e-01  2.2674e-02  9.9402e-01  4.9605e-01  0:03:53   46
 temperature limited to 5.000000e+03 in 8 cells on zone 900 in domain 1
 
 absolute pressure limited to 5.000000e+10 in 263127 cells on zone 900 

 turbulent viscosity limited to viscosity ratio of 1.000000e+05 in 254696 cells 
   455  8.0824e+09  5.0250e-02  1.9186e-01  2.0490e-01  2.3214e-02  9.8544e-01  4.9287e-01  0:03:48   45
 temperature limited to 5.000000e+03 in 28 cells on zone 900 in domain 1
 
 absolute pressure limited to 5.000000e+10 in 263123 cells on zone 900 

 turbulent viscosity limited to viscosity ratio of 1.000000e+05 in 254568 cells 
   456  7.8021e+09  5.0620e-02  1.9667e-01  2.0309e-01  2.1495e-02  9.7817e-01  4.8836e-01  0:03:43   44
 temperature limited to 5.000000e+03 in 34 cells on zone 900 in domain 1
 
 absolute pressure limited to 5.000000e+10 in 263144 cells on zone 900 

 turbulent viscosity limited to viscosity ratio of 1.000000e+05 in 255017 cells 
   457  7.5350e+09  4.9442e-02  1.9907e-01  2.0098e-01  2.3637e-02  9.8951e-01  4.9093e-01  0:03:37   43
 temperature limited to 5.000000e+03 in 15 cells on zone 900 in domain 1
 
 absolute pressure limited to 5.000000e+10 in 263122 cells on zone 900 

 turbulent viscosity limited to viscosity ratio of 1.000000e+05 in 254827 cells 
   458  7.6818e+09  5.5147e-02  2.0718e-01  2.0594e-01  2.3640e-02  9.7544e-01  4.8837e-01  0:03:32   42

 absolute pressure limited to 5.000000e+10 in 263097 cells on zone 900 

 turbulent viscosity limited to viscosity ratio of 1.000000e+05 in 255043 cells 
   459  7.4866e+09  5.2456e-02  2.0246e-01  2.1129e-01  2.4752e-02  9.9812e-01  4.9795e-01  0:03:27   41
 temperature limited to 5.000000e+03 in 7 cells on zone 900 in domain 1
 
 absolute pressure limited to 5.000000e+10 in 263120 cells on zone 900 

 turbulent viscosity limited to viscosity ratio of 1.000000e+05 in 254897 cells 
   460  7.2349e+09  5.7820e-02  2.0817e-01  2.0554e-01  2.6675e-02  9.9238e-01  4.9604e-01  0:03:22   40
 temperature limited to 5.000000e+03 in 28 cells on zone 900 in domain 1
 
 absolute pressure limited to 5.000000e+10 in 263137 cells on zone 900 

 turbulent viscosity limited to viscosity ratio of 1.000000e+05 in 254934 cells 
   461  7.3537e+09  5.1440e-02  2.0743e-01  2.0953e-01  2.6401e-02  9.8571e-01  4.9217e-01  0:03:17   39
 temperature limited to 5.000000e+03 in 42 cells on zone 900 in domain 1
 
 absolute pressure limited to 5.000000e+10 in 263116 cells on zone 900 

 turbulent viscosity limited to viscosity ratio of 1.000000e+05 in 254855 cells 
   462  7.3784e+09  5.5690e-02  2.1107e-01  2.0409e-01  2.6053e-02  9.9793e-01  4.9822e-01  0:03:12   38
 temperature limited to 5.000000e+03 in 32 cells on zone 900 in domain 1
 
 absolute pressure limited to 5.000000e+10 in 263125 cells on zone 900 

 turbulent viscosity limited to viscosity ratio of 1.000000e+05 in 254850 cells 

  iter  continuity  x-velocity  y-velocity  z-velocity      energy           k       omega     time/iter
   463  7.1876e+09  5.0937e-02  2.0668e-01  2.0682e-01  2.4184e-02  9.9323e-01  4.9627e-01  0:03:07   37
 temperature limited to 5.000000e+03 in 69 cells on zone 900 in domain 1
 
 absolute pressure limited to 5.000000e+10 in 263119 cells on zone 900 

 turbulent viscosity limited to viscosity ratio of 1.000000e+05 in 254745 cells 
   464  7.0505e+09  5.0159e-02  2.0869e-01  1.9438e-01  2.4734e-02  9.8949e-01  4.9431e-01  0:03:02   36
 temperature limited to 5.000000e+03 in 86 cells on zone 900 in domain 1
 
 absolute pressure limited to 5.000000e+10 in 263108 cells on zone 900 

 turbulent viscosity limited to viscosity ratio of 1.000000e+05 in 254692 cells 
   465  6.9091e+09  5.3149e-02  2.1353e-01  1.9256e-01  2.4834e-02  9.8211e-01  4.9061e-01  0:02:57   35
 temperature limited to 5.000000e+03 in 114 cells on zone 900 in domain 1
  temperature limited to 5.000000e+03 on 5 faces

 absolute pressure limited to 5.000000e+10 in 263109 cells on zone 900 

 turbulent viscosity limited to viscosity ratio of 1.000000e+05 in 254534 cells 
   466  6.8459e+09  5.8275e-02  2.1503e-01  1.9656e-01  2.5239e-02  9.7370e-01  4.8517e-01  0:02:52   34
 temperature limited to 5.000000e+03 in 123 cells on zone 900 in domain 1
  temperature limited to 5.000000e+03 on 14 faces

 absolute pressure limited to 5.000000e+10 in 263117 cells on zone 900 

 turbulent viscosity limited to viscosity ratio of 1.000000e+05 in 254490 cells 
   467  6.7383e+09  5.4693e-02  2.1336e-01  1.9655e-01  2.5195e-02  9.8785e-01  4.8859e-01  0:02:47   33
 temperature limited to 5.000000e+03 in 142 cells on zone 900 in domain 1
  temperature limited to 5.000000e+03 on 22 faces

 absolute pressure limited to 5.000000e+10 in 263120 cells on zone 900 

 turbulent viscosity limited to viscosity ratio of 1.000000e+05 in 254288 cells 
   468  6.7464e+09  5.5063e-02  2.0893e-01  2.0160e-01  2.4817e-02  9.9559e-01  4.9566e-01  0:02:42   32
 temperature limited to 1.000000e+00 in 1 cells on zone 900 in domain 1
  temperature limited to 5.000000e+03 in 165 cells on zone 900 in domain 1
  temperature limited to 5.000000e+03 on 35 faces

 absolute pressure limited to 5.000000e+10 in 263126 cells on zone 900 

 turbulent viscosity limited to viscosity ratio of 1.000000e+05 in 254382 cells 
   469  6.6853e+09  5.9932e-02  2.1782e-01  2.1150e-01  2.3868e-02  9.9670e-01  4.9715e-01  0:02:37   31
 temperature limited to 1.000000e+00 in 1 cells on zone 900 in domain 1
  temperature limited to 5.000000e+03 in 187 cells on zone 900 in domain 1
  temperature limited to 5.000000e+03 on 41 faces

 absolute pressure limited to 5.000000e+10 in 263137 cells on zone 900 

 turbulent viscosity limited to viscosity ratio of 1.000000e+05 in 253902 cells 
   470  6.6830e+09  5.5764e-02  2.1772e-01  2.1325e-01  2.4044e-02  9.9387e-01  4.9560e-01  0:02:32   30
 temperature limited to 1.000000e+00 in 12 cells on zone 900 in domain 1
  temperature limited to 5.000000e+03 in 107 cells on zone 900 in domain 1
  temperature limited to 5.000000e+03 on 36 faces

 absolute pressure limited to 5.000000e+10 in 263112 cells on zone 900 

 turbulent viscosity limited to viscosity ratio of 1.000000e+05 in 254141 cells 
   471  6.6085e+09  6.1372e-02  2.1399e-01  2.0780e-01  2.5004e-02  9.9668e-01  4.9736e-01  0:02:27   29
 temperature limited to 1.000000e+00 in 19 cells on zone 900 in domain 1
  temperature limited to 5.000000e+03 on 12 faces

 absolute pressure limited to 5.000000e+10 in 263125 cells on zone 900 

 turbulent viscosity limited to viscosity ratio of 1.000000e+05 in 254092 cells 
   472  6.3631e+09  5.9947e-02  2.2143e-01  2.1094e-01  2.7258e-02  9.9244e-01  4.9574e-01  0:02:22   28
 temperature limited to 1.000000e+00 in 25 cells on zone 900 in domain 1
  temperature limited to 5.000000e+03 in 122 cells on zone 900 in domain 1
 
 absolute pressure limited to 5.000000e+10 in 263129 cells on zone 900 

 turbulent viscosity limited to viscosity ratio of 1.000000e+05 in 254253 cells 
   473  6.5305e+09  6.0536e-02  2.1868e-01  2.2092e-01  2.7636e-02  9.9175e-01  4.9464e-01  0:02:17   27
 temperature limited to 1.000000e+00 in 39 cells on zone 900 in domain 1
  temperature limited to 5.000000e+03 in 161 cells on zone 900 in domain 1
 
 absolute pressure limited to 5.000000e+10 in 263128 cells on zone 900 

 turbulent viscosity limited to viscosity ratio of 1.000000e+05 in 253920 cells 

  iter  continuity  x-velocity  y-velocity  z-velocity      energy           k       omega     time/iter
   474  6.7372e+09  5.6991e-02  2.2148e-01  2.1793e-01  2.5540e-02  9.9867e-01  4.9866e-01  0:02:12   26
 temperature limited to 1.000000e+00 in 67 cells on zone 900 in domain 1
  temperature limited to 5.000000e+03 in 169 cells on zone 900 in domain 1
 
 absolute pressure limited to 5.000000e+10 in 263128 cells on zone 900 

 turbulent viscosity limited to viscosity ratio of 1.000000e+05 in 254044 cells 
   475  6.5781e+09  5.4461e-02  2.1343e-01  2.1041e-01  2.6734e-02  9.9412e-01  4.9711e-01  0:02:07   25
 temperature limited to 1.000000e+00 in 90 cells on zone 900 in domain 1
 
 absolute pressure limited to 5.000000e+10 in 263122 cells on zone 900 

 turbulent viscosity limited to viscosity ratio of 1.000000e+05 in 253633 cells 
   476  6.4084e+09  5.9856e-02  2.0973e-01  2.1244e-01  2.5169e-02  9.9062e-01  4.9544e-01  0:02:01   24
 temperature limited to 1.000000e+00 in 128 cells on zone 900 in domain 1
 
 absolute pressure limited to 5.000000e+10 in 263127 cells on zone 900 

 turbulent viscosity limited to viscosity ratio of 1.000000e+05 in 253959 cells 
   477  6.5561e+09  5.5725e-02  2.0969e-01  2.0456e-01  2.6820e-02  9.8816e-01  4.9325e-01  0:01:56   23
 temperature limited to 1.000000e+00 in 195 cells on zone 900 in domain 1
 
 absolute pressure limited to 5.000000e+10 in 263123 cells on zone 900 

 turbulent viscosity limited to viscosity ratio of 1.000000e+05 in 253840 cells 
   478  6.4197e+09  6.1114e-02  2.1505e-01  2.1224e-01  2.6182e-02  9.8005e-01  4.9031e-01  0:01:51   22
 temperature limited to 1.000000e+00 in 210 cells on zone 900 in domain 1
 
 absolute pressure limited to 5.000000e+10 in 263129 cells on zone 900 

 turbulent viscosity limited to viscosity ratio of 1.000000e+05 in 253867 cells 
   479  6.5997e+09  6.3672e-02  2.1812e-01  2.1970e-01  2.5006e-02  9.9384e-01  4.9447e-01  0:01:46   21
 temperature limited to 1.000000e+00 in 283 cells on zone 900 in domain 1
 
 absolute pressure limited to 5.000000e+10 in 263143 cells on zone 900 

 turbulent viscosity limited to viscosity ratio of 1.000000e+05 in 253897 cells 
   480  6.5531e+09  5.9360e-02  2.1047e-01  2.1888e-01  2.4180e-02  9.9030e-01  4.9252e-01  0:01:41   20
 temperature limited to 1.000000e+00 in 405 cells on zone 900 in domain 1
 
 absolute pressure limited to 5.000000e+10 in 263126 cells on zone 900 

 turbulent viscosity limited to viscosity ratio of 1.000000e+05 in 253963 cells 
   481  6.5033e+09  5.8964e-02  2.0810e-01  2.1839e-01  2.3210e-02  9.9803e-01  4.9806e-01  0:01:36   19
 temperature limited to 1.000000e+00 in 334 cells on zone 900 in domain 1
  temperature limited to 5.000000e+03 in 2 cells on zone 900 in domain 1
 
 absolute pressure limited to 5.000000e+10 in 263136 cells on zone 900 

 turbulent viscosity limited to viscosity ratio of 1.000000e+05 in 253983 cells 
   482  6.5767e+09  5.9699e-02  2.0069e-01  2.1714e-01  2.4642e-02  9.9451e-01  4.9691e-01  0:01:31   18
 temperature limited to 1.000000e+00 in 13 cells on zone 900 in domain 1
  temperature limited to 5.000000e+03 in 3 cells on zone 900 in domain 1
 
 absolute pressure limited to 5.000000e+10 in 263119 cells on zone 900 

 turbulent viscosity limited to viscosity ratio of 1.000000e+05 in 254336 cells 
   483  6.5547e+09  6.0153e-02  2.0555e-01  2.1979e-01  2.3606e-02  9.9232e-01  4.9546e-01  0:01:26   17
 temperature limited to 1.000000e+00 in 304 cells on zone 900 in domain 1
  temperature limited to 5.000000e+03 in 7 cells on zone 900 in domain 1
 
 absolute pressure limited to 5.000000e+10 in 263120 cells on zone 900 

 turbulent viscosity limited to viscosity ratio of 1.000000e+05 in 254143 cells 
   484  6.4775e+09  5.7295e-02  2.0273e-01  2.2124e-01  2.4203e-02  9.8006e-01  4.9108e-01  0:01:21   16
 temperature limited to 1.000000e+00 in 342 cells on zone 900 in domain 1
  temperature limited to 5.000000e+03 in 52 cells on zone 900 in domain 1
 
 absolute pressure limited to 5.000000e+10 in 263140 cells on zone 900 

 turbulent viscosity limited to viscosity ratio of 1.000000e+05 in 254325 cells 

  iter  continuity  x-velocity  y-velocity  z-velocity      energy           k       omega     time/iter
   485  6.6015e+09  5.9722e-02  2.0869e-01  2.1913e-01  2.3877e-02  9.8530e-01  4.9038e-01  0:01:16   15
 temperature limited to 1.000000e+00 in 351 cells on zone 900 in domain 1
  temperature limited to 5.000000e+03 in 139 cells on zone 900 in domain 1
  temperature limited to 5.000000e+03 on 1 faces

 absolute pressure limited to 5.000000e+10 in 263125 cells on zone 900 

 turbulent viscosity limited to viscosity ratio of 1.000000e+05 in 254009 cells 
   486  6.6324e+09  5.8321e-02  2.0732e-01  2.2000e-01  2.4046e-02  9.8627e-01  4.9007e-01  0:01:11   14
 temperature limited to 1.000000e+00 in 71 cells on zone 900 in domain 1
  temperature limited to 5.000000e+03 in 347 cells on zone 900 in domain 1
  temperature limited to 5.000000e+03 on 3 faces

 absolute pressure limited to 5.000000e+10 in 263130 cells on zone 900 

 turbulent viscosity limited to viscosity ratio of 1.000000e+05 in 254223 cells 
   487  6.4793e+09  5.6920e-02  2.1003e-01  2.1631e-01  2.5021e-02  9.9905e-01  4.9926e-01  0:01:06   13
 temperature limited to 1.000000e+00 in 335 cells on zone 900 in domain 1
  temperature limited to 5.000000e+03 in 510 cells on zone 900 in domain 1
  temperature limited to 5.000000e+03 on 5 faces

 absolute pressure limited to 5.000000e+10 in 263127 cells on zone 900 

 turbulent viscosity limited to viscosity ratio of 1.000000e+05 in 253910 cells 
   488  6.5420e+09  5.9175e-02  2.0997e-01  2.1419e-01  2.6631e-02  9.9730e-01  4.9866e-01  0:01:01   12
 temperature limited to 1.000000e+00 in 113 cells on zone 900 in domain 1
  temperature limited to 5.000000e+03 in 1182 cells on zone 900 in domain 1
  temperature limited to 5.000000e+03 on 20 faces

 absolute pressure limited to 5.000000e+10 in 263138 cells on zone 900 

 turbulent viscosity limited to viscosity ratio of 1.000000e+05 in 254136 cells 
   489  6.5508e+09  5.6872e-02  2.0650e-01  2.1145e-01  2.7881e-02  9.9310e-01  4.9680e-01  0:00:56   11
 temperature limited to 1.000000e+00 in 259 cells on zone 900 in domain 1
  temperature limited to 5.000000e+03 in 1567 cells on zone 900 in domain 1
  temperature limited to 5.000000e+03 on 136 faces

 absolute pressure limited to 5.000000e+10 in 263134 cells on zone 900 

 turbulent viscosity limited to viscosity ratio of 1.000000e+05 in 253816 cells 
   490  6.5126e+09  5.6765e-02  2.0319e-01  2.1254e-01  2.8456e-02  9.8077e-01  4.9444e-01  0:00:51   10
 temperature limited to 1.000000e+00 in 404 cells on zone 900 in domain 1
  temperature limited to 5.000000e+03 in 1845 cells on zone 900 in domain 1
  temperature limited to 5.000000e+03 on 403 faces

 absolute pressure limited to 5.000000e+10 in 263126 cells on zone 900 

 turbulent viscosity limited to viscosity ratio of 1.000000e+05 in 254001 cells 
   491  6.6614e+09  6.2807e-02  2.0813e-01  2.1750e-01  2.9189e-02  9.9294e-01  4.9547e-01  0:00:46    9
 temperature limited to 1.000000e+00 in 421 cells on zone 900 in domain 1
  temperature limited to 5.000000e+03 in 2062 cells on zone 900 in domain 1
  temperature limited to 5.000000e+03 on 763 faces

 absolute pressure limited to 5.000000e+10 in 263124 cells on zone 900 

 turbulent viscosity limited to viscosity ratio of 1.000000e+05 in 253696 cells 
   492  6.7500e+09  6.1396e-02  2.0884e-01  2.1241e-01  2.6183e-02  9.9757e-01  4.9791e-01  0:00:41    8
 temperature limited to 1.000000e+00 in 242 cells on zone 900 in domain 1
  temperature limited to 5.000000e+03 in 2236 cells on zone 900 in domain 1
  temperature limited to 5.000000e+03 on 987 faces

 absolute pressure limited to 5.000000e+10 in 263131 cells on zone 900 

 turbulent viscosity limited to viscosity ratio of 1.000000e+05 in 254234 cells 
   493  6.8470e+09  5.9266e-02  2.0409e-01  2.1772e-01  2.7875e-02  9.8923e-01  4.9543e-01  0:00:35    7
 temperature limited to 1.000000e+00 in 56 cells on zone 900 in domain 1
  temperature limited to 5.000000e+03 in 2363 cells on zone 900 in domain 1
  temperature limited to 5.000000e+03 on 989 faces

 absolute pressure limited to 5.000000e+10 in 263128 cells on zone 900 

 turbulent viscosity limited to viscosity ratio of 1.000000e+05 in 253847 cells 
   494  7.1899e+09  6.1317e-02  2.0689e-01  2.2764e-01  2.6149e-02  9.8344e-01  4.9214e-01  0:00:30    6
 temperature limited to 1.000000e+00 in 66 cells on zone 900 in domain 1
  temperature limited to 5.000000e+03 in 2794 cells on zone 900 in domain 1
  temperature limited to 5.000000e+03 on 980 faces

 absolute pressure limited to 5.000000e+10 in 263147 cells on zone 900 

 turbulent viscosity limited to viscosity ratio of 1.000000e+05 in 254341 cells 
   495  7.5610e+09  5.3466e-02  2.0197e-01  2.2831e-01  2.7370e-02  9.9533e-01  4.9541e-01  0:00:25    5
 temperature limited to 5.000000e+03 in 1499 cells on zone 900 in domain 1
  temperature limited to 5.000000e+03 on 763 faces

 absolute pressure limited to 5.000000e+10 in 263152 cells on zone 900 

 turbulent viscosity limited to viscosity ratio of 1.000000e+05 in 253745 cells 

  iter  continuity  x-velocity  y-velocity  z-velocity      energy           k       omega     time/iter
   496  7.9781e+09  5.7045e-02  2.0561e-01  2.2359e-01  2.7782e-02  9.8562e-01  4.9212e-01  0:00:20    4
 temperature limited to 5.000000e+03 in 2531 cells on zone 900 in domain 1
  temperature limited to 5.000000e+03 on 498 faces

 absolute pressure limited to 5.000000e+10 in 263133 cells on zone 900 

 turbulent viscosity limited to viscosity ratio of 1.000000e+05 in 254373 cells 
   497  8.1290e+09  5.6156e-02  2.0387e-01  2.2586e-01  2.7130e-02  9.8615e-01  4.9124e-01  0:00:15    3
 temperature limited to 5.000000e+03 in 1043 cells on zone 900 in domain 1
  temperature limited to 5.000000e+03 on 249 faces

 absolute pressure limited to 5.000000e+10 in 263142 cells on zone 900 

 turbulent viscosity limited to viscosity ratio of 1.000000e+05 in 253863 cells 
   498  8.4594e+09  5.8004e-02  2.0636e-01  2.2916e-01  2.5899e-02  9.9122e-01  4.9353e-01  0:00:10    2
 temperature limited to 1.000000e+00 in 25 cells on zone 900 in domain 1
  temperature limited to 5.000000e+03 in 507 cells on zone 900 in domain 1
  temperature limited to 5.000000e+03 on 20 faces

 absolute pressure limited to 5.000000e+10 in 263131 cells on zone 900 

 turbulent viscosity limited to viscosity ratio of 1.000000e+05 in 254516 cells 
   499  8.9641e+09  5.3817e-02  1.9904e-01  2.3007e-01  2.7811e-02  9.9361e-01  4.9452e-01  0:00:05    1
 temperature limited to 1.000000e+00 in 81 cells on zone 900 in domain 1
  temperature limited to 5.000000e+03 in 144 cells on zone 900 in domain 1
  temperature limited to 5.000000e+03 on 1 faces

 absolute pressure limited to 5.000000e+10 in 263119 cells on zone 900 

 turbulent viscosity limited to viscosity ratio of 1.000000e+05 in 253899 cells 
   500  9.3706e+09  5.0235e-02  1.9882e-01  2.3329e-01  2.8447e-02  9.9453e-01  4.9518e-01  0:00:00    0

> Halting due to end of file on input.
Auto-Transcript Stop Time:  02:57:51, 30 Nov 2024 
Total Transcript Time: 44 Minute 8 Second.

Automatic transcript closed.
