/opt/crc/a/ansys/2024R1/v241/fluent/fluent24.1.0/bin/fluent -r24.1.0 3ddp -t1 -g
/opt/crc/a/ansys/2024R1/v241/fluent/fluent24.1.0/cortex/lnamd64/cortex.24.1.0 -f fluent -g (fluent "3ddp -pshmem  -host -r24.1.0 -t1 -mpi=intel -path/opt/crc/a/ansys/2024R1/v241/fluent -ssh")

Opening input/output transcript to file "/tmp/1007940.1.long/worker-241760-969268/task.25/fluent-20241130-022620-973425.trn".
Auto-Transcript Start Time:  02:26:20, 30 Nov 2024 
/opt/crc/a/ansys/2024R1/v241/fluent/fluent24.1.0/bin/fluent -r24.1.0 3ddp -pshmem -host -t1 -mpi=intel -path/opt/crc/a/ansys/2024R1/v241/fluent -ssh -cx d32cepyc204.crc.nd.edu:37135:38277
Starting /opt/crc/a/ansys/2024R1/v241/fluent/fluent24.1.0/lnamd64/3ddp_host/fluent.24.1.0 host -cx d32cepyc204.crc.nd.edu:37135:38277 "(list (rpsetvar (QUOTE parallel/function) "fluent 3ddp -flux -node -r24.1.0 -t1 -pshmem -mpi=intel -ssh") (rpsetvar (QUOTE parallel/rhost) "") (rpsetvar (QUOTE parallel/ruser) "") (rpsetvar (QUOTE parallel/nprocs_string) "1") (rpsetvar (QUOTE parallel/auto-spawn?) #t) (rpsetvar (QUOTE parallel/trace-level) 0) (rpsetvar (QUOTE parallel/remote-shell) 1) (rpsetvar (QUOTE parallel/path) "/opt/crc/a/ansys/2024R1/v241/fluent") (rpsetvar (QUOTE parallel/hostsfile) "") (rpsetvar (QUOTE gpuapp/devices) ""))"

              Welcome to ANSYS Fluent 2024 R1

              Copyright 1987-2024 ANSYS, Inc. All Rights Reserved.
              Unauthorized use, distribution or duplication is prohibited.
              This product is subject to U.S. laws governing export and re-export.
              For full Legal Notice, see documentation.

Build Time: Nov 22 2023 10:07:25 EST  Build Id: 10184  
 
Connected License Server List:	7504@linux5-lic.crc.nd.edu

*********************************************
Info: Your license enables 4-way parallel execution.
For faster simulations, please start the application with the appropriate parallel options.
*********************************************


     --------------------------------------------------------------
     This is an academic version of ANSYS FLUENT. Usage of this product
     license is limited to the terms and conditions specified in your ANSYS
     license form, additional terms section.
     --------------------------------------------------------------
Host spawning Node 0 on machine "d32cepyc204.crc.nd.edu" (unix).
/opt/crc/a/ansys/2024R1/v241/fluent/fluent24.1.0/bin/fluent -r24.1.0 3ddp -flux -node -t1 -pshmem -mpi=intel -ssh -mport 10.32.91.175:10.32.91.175:42517:0
Starting /opt/crc/a/ansys/2024R1/v241/fluent/fluent24.1.0/multiport/mpi/lnamd64/intel2021/bin/mpirun --rsh=ssh -f /tmp/fluent-appfile.etracey.973840 -genv I_MPI_FABRICS shm -genv FLUENT_ARCH lnamd64 -genv I_MPI_DEBUG 0 -genv I_MPI_ADJUST_GATHERV 3 -genv I_MPI_ADJUST_ALLREDUCE 2 -genv I_MPI_PLATFORM auto -genv PYTHONHOME /opt/crc/a/ansys/2024R1/v241/fluent/fluent24.1.0/../../commonfiles/CPython/3_10/linx64/Release/python -genv FLUENT_PROD_DIR /opt/crc/a/ansys/2024R1/v241/fluent/fluent24.1.0 -genv FLUENT_AFFINITY 0 -genv I_MPI_PIN enable -genv KMP_AFFINITY disabled -n 1 /opt/crc/a/ansys/2024R1/v241/fluent/fluent24.1.0/lnamd64/3ddp_node/fluent_mpi.24.1.0 node -mpiw intel -pic shmem -mport 10.32.91.175:10.32.91.175:42517:0

-------------------------------------------------------------------------------
ID    Hostname              Core  O.S.      PID     Vendor                
-------------------------------------------------------------------------------
n0    d32cepyc204.crc.nd.e  1/64  Linux-64  973890  AMD EPYC 7543 32-Core 
host  d32cepyc204.crc.nd.e        Linux-64  973635  AMD EPYC 7543 32-Core 

MPI Option Selected: intel
-------------------------------------------------------------------------------


Initializing SGE
Done.
Cleanup script file is /tmp/1007940.1.long/worker-241760-969268/task.25/cleanup-fluent-d32cepyc204.crc.nd.edu-973635.sh
Key Behavioral Changes:
Fluent Guided Meshing Workflows: 
Workflow template files (.wft) are now saved by default whenever the mesh is saved. You can change the automatic creation of .wft files in Preferences. 
Journaling: 
When Ansys Fluent encounters an invalid input in a journal file that is being replayed, it now raises an error condition and aborts the journal processing. 
Turbulence: 
The value of kappa used in the Spalart-Allmaras model for interior terms was inconsistent with the reference publications of the model. Fluent historically used a value of 0.4187, but to produce results consistent with the published model, the value should be 0.41. This issue was first addressed in a previous Fluent version and access to the kappa value was given in the GUI while keeping the old default of 0.4187. In Fluent 2024 R1, the default value is now changed to 0.41. 
Turbomachinery: 
For Blade Film Cooling, you can now specify stationary holes on the surfaces of a moving/rotating cell zone in transient cases. 
Boundaries previously referred to as "casings" in the Turbo Topology definition are now referred to as "shrouds." 
Density-Based Solver: 
The High Speed Numerics have been updated to increase the robustness of the Roe-FDS numerical flux against shock-instabilities and the carbuncle phenomenon. This modification may produce a slight solution change for cases combining Roe-FDS and HSN. 
Multiphase Models: 
Modeling of open channel flows in conjunction with the translation moving reference frame (MRF) has been improved resulting in more accurate and stable solution. In addition, a solution methodology has been suggested to provide better stability for high-speed hull simulations. 
Parallel Processing: 
Using dynamic process spawning now requires that you manually specify the interconnect as -pethernet for shared memory or distributed memory without InfiniBand, and -pib.ofed for distributed memory over InfiniBand. 
Refer to the Ansys, Inc. Release Notes for a full listing of the new features included in Ansys Fluent 2024 R1. 
> Fast-loading "/opt/crc/a/ansys/2024R1/v241/fluent/fluent24.1.0/addons/afd/lib/hdfio.bin"
Done.
WARNING: Rank:0 Machine d32cepyc204.crc.nd.edu has 43 % of RAM filled with file buffer caches.
This can cause potential performance issues. Please use -cflush flag to flush the cache. 


Reading from d32cepyc204.crc.nd.edu:"/tmp/1007940.1.long/worker-241760-969268/task.25/case.cas.h5" in NODE0 mode ...
  Reading mesh ...
      263237 cells,     1 cell zone  ...
         263237 polyhedra cells,  zone id: 900
     1517660 faces,     5 face zones ...
            514 polygonal pressure-far-field faces,  zone id: 17
            512 polygonal pressure-far-field faces,  zone id: 18
           4017 polygonal pressure-far-field faces,  zone id: 19
          30625 polygonal wall faces,  zone id: 20
        1481992 polygonal interior faces,  zone id: 899
     1099102 nodes,     1 node zone  ...
  Done.


Building...
     mesh
  Reading boundary layer flags ...
  Done.

     materials,
     interface,
     domains,
	mixture
     zones,
	inlet
	outlet
	farfield
	launchvehicle
	interior--solid
	solid
     parallel,
Done.
Warning: Pressure far-field boundary condition can only be used with ideal gas law.
  Please change either the boundary condition type or enable ideal gas law.
  Solver cannot proceed until this is fixed.
	Warning: Pressure far-field boundary condition can only be used with ideal gas law.
  Please change either the boundary condition type or enable ideal gas law.
  Solver cannot proceed until this is fixed.
	
> adjoint/                parallel/               server/
define/                 parametric-study/       solve/
display/                plot/                   surface/
exit                    preferences/            turbo-workflow/
file/                   print-license-usage     views/
mesh/                   report/

> air is a fluid

Density
no data required.


Note: Enabling energy equation as required by material density method.

> adjoint/                parallel/               server/
define/                 parametric-study/       solve/
display/                plot/                   surface/
exit                    preferences/            turbo-workflow/
file/                   print-license-usage     views/
mesh/                   report/

> 
> adjoint/                parallel/               server/
define/                 parametric-study/       solve/
display/                plot/                   surface/
exit                    preferences/            turbo-workflow/
file/                   print-license-usage     views/
mesh/                   report/

> 
> adjoint/                parallel/               server/
define/                 parametric-study/       solve/
display/                plot/                   surface/
exit                    preferences/            turbo-workflow/
file/                   print-license-usage     views/
mesh/                   report/

> (farfield outlet inlet)

> (farfield outlet inlet)

> (farfield outlet inlet)

> adjoint/                parallel/               server/
define/                 parametric-study/       solve/
display/                plot/                   surface/
exit                    preferences/            turbo-workflow/
file/                   print-license-usage     views/
mesh/                   report/

> (launchvehicle)

> adjoint/                parallel/               server/
define/                 parametric-study/       solve/
display/                plot/                   surface/
exit                    preferences/            turbo-workflow/
file/                   print-license-usage     views/
mesh/                   report/

> 
> 
> 
> 
> 
> 
> adjoint/                parallel/               server/
define/                 parametric-study/       solve/
display/                plot/                   surface/
exit                    preferences/            turbo-workflow/
file/                   print-license-usage     views/
mesh/                   report/

> 
> 
> 
> adjoint/                parallel/               server/
define/                 parametric-study/       solve/
display/                plot/                   surface/
exit                    preferences/            turbo-workflow/
file/                   print-license-usage     views/
mesh/                   report/

> 
> 
> 
> adjoint/                parallel/               server/
define/                 parametric-study/       solve/
display/                plot/                   surface/
exit                    preferences/            turbo-workflow/
file/                   print-license-usage     views/
mesh/                   report/

> 
> adjoint/                parallel/               server/
define/                 parametric-study/       solve/
display/                plot/                   surface/
exit                    preferences/            turbo-workflow/
file/                   print-license-usage     views/
mesh/                   report/

> 
Initialize using the hybrid initialization method.

Checking case topology... 
-This case has multiple farfield bc 
-Case will be initialized with constant parameters

	iter		scalar-0

	1		1.000000e+00
	2		5.812510e-04
	3		9.801839e-05
	4		1.227092e-05
	5		3.221431e-06
	6		6.221829e-07
	7		2.673634e-07
	8		9.416682e-08
	9		4.614916e-08
	10		2.915487e-08

Hybrid initialization is done.

Note: Settings to improve the robustness of pathline and
      particle tracking have been automatically enabled.


> 
  iter  continuity  x-velocity  y-velocity  z-velocity      energy           k       omega     time/iter
     1  1.0000e+00  1.6392e-04  2.8789e-04  3.0503e-04  6.4532e-07  8.2304e-01  4.4769e-01  0:59:30  499
     2  8.4467e-01  1.1308e-04  2.0566e-04  1.7873e-04  5.3681e-07  7.2513e-01  4.1946e-01  0:58:26  498
     3  8.6622e-01  9.6044e-05  1.8202e-04  1.3409e-04  4.4135e-07  5.6315e-01  3.7844e-01  0:57:53  497
     4  1.0000e+00  8.4396e-05  2.3684e-04  9.6463e-05  5.2788e-07  3.5312e-01  3.2159e-01  0:58:15  496
     5  1.0000e+00  1.2506e-04  3.9837e-04  1.1383e-04  8.1083e-07  1.4889e-01  2.5376e-01  0:57:34  495
     6  2.0599e+00  1.9980e-04  7.8329e-04  1.5205e-04  1.5737e-06  6.0716e-02  1.8200e-01  0:58:10  494
     7  4.1933e+00  3.4196e-04  1.6337e-03  2.3604e-04  3.5800e-06  4.8303e-02  1.1936e-01  0:58:33  493
     8  8.8173e+00  6.3892e-04  3.3246e-03  4.7574e-04  9.0649e-06  4.5520e-02  7.7049e-02  0:58:43  492
     9  1.6709e+01  1.2056e-03  7.7784e-03  8.4861e-04  1.9554e-05  1.8116e-01  1.1356e-01  0:58:49  491
    10  3.2243e+01  2.9746e-03  1.6102e-02  3.1841e-03  8.9932e-05  2.7775e-01  1.6012e-01  0:57:40  490
    11  4.6049e+01  8.2616e-03  2.3703e-02  4.5881e-03  8.4158e-05  2.5287e-01  1.4933e-01  0:56:51  489

  iter  continuity  x-velocity  y-velocity  z-velocity      energy           k       omega     time/iter
    12  4.9760e+01  8.2756e-03  2.0727e-02  3.4433e-03  2.3697e-04  2.5415e-01  1.4056e-01  0:56:08  488
    13  7.4109e+01  2.3088e-02  4.0681e-02  7.1599e-03  2.2553e-04  3.0587e-01  1.9735e-01  0:55:30  487
    14  8.1017e+01  2.0234e-02  3.6639e-02  7.2358e-03  2.4100e-04  3.0565e-01  1.8305e-01  0:55:18  486
    15  7.5721e+01  2.9007e-02  4.4085e-02  7.0160e-03  3.3033e-04  3.2059e-01  2.0704e-01  0:54:52  485
    16  1.1148e+02  3.3407e-02  6.1383e-02  1.1324e-02  4.1901e-04  3.7079e-01  2.4235e-01  0:54:35  484
    17  1.0092e+02  3.6230e-02  6.8480e-02  9.2723e-03  4.7503e-04  4.0654e-01  2.7323e-01  0:54:23  483
    18  1.3512e+02  4.4867e-02  8.3996e-02  1.4793e-02  6.8517e-04  4.2446e-01  2.7069e-01  0:54:15  482
    19  1.2110e+02  5.8827e-02  8.9008e-02  1.2918e-02  7.8116e-04  4.5691e-01  3.2096e-01  0:54:33  481
    20  1.5998e+02  5.7109e-02  1.1635e-01  1.6869e-02  8.2362e-04  5.1725e-01  3.2693e-01  0:54:02  480
    21  1.5418e+02  7.8000e-02  1.0795e-01  1.6613e-02  1.5788e-03  5.0401e-01  3.5575e-01  0:53:37  479
    22  1.9297e+02  8.9126e-02  1.7826e-01  2.5483e-02  1.4208e-03  5.4347e-01  3.5795e-01  0:53:11  478

  iter  continuity  x-velocity  y-velocity  z-velocity      energy           k       omega     time/iter
    23  1.7769e+02  9.7238e-02  1.5875e-01  2.3646e-02  2.1176e-03  6.5710e-01  4.6554e-01  0:52:56  477
    24  2.3714e+02  1.1282e-01  2.3263e-01  3.4267e-02  2.5382e-03  7.5702e-01  4.4476e-01  0:52:45  476
    25  2.0926e+02  1.2304e-01  2.1867e-01  3.6388e-02  2.2575e-03  5.8003e-01  4.0989e-01  0:52:30  475
    26  2.5527e+02  1.6319e-01  2.6700e-01  4.6350e-02  1.8721e-03  4.8787e-01  3.6210e-01  0:52:29  474
    27  2.4576e+02  1.4878e-01  2.2627e-01  4.5546e-02  2.1720e-03  5.0918e-01  3.6018e-01  0:52:31  473
    28  2.5468e+02  1.8727e-01  2.8015e-01  6.0280e-02  2.6403e-03  5.7521e-01  3.8702e-01  0:52:34  472
    29  2.6267e+02  2.0669e-01  2.7883e-01  5.8983e-02  3.6729e-03  5.6825e-01  3.9423e-01  0:52:37  471
    30  2.8084e+02  2.7346e-01  2.8189e-01  6.8464e-02  1.1520e-02  5.9189e-01  4.2611e-01  1:01:12  470
    31  3.0476e+02  3.1404e-01  2.8624e-01  6.3862e-02  3.8127e-03  6.6801e-01  4.7275e-01  0:59:13  469
    32  3.1811e+02  2.8198e-01  3.4072e-01  8.8198e-02  3.3228e-03  7.3363e-01  4.7453e-01  0:57:30  468
    33  3.3113e+02  2.5183e-01  3.3315e-01  8.5075e-02  4.4035e-03  6.9059e-01  4.4006e-01  0:56:05  467

  iter  continuity  x-velocity  y-velocity  z-velocity      energy           k       omega     time/iter
    34  3.0843e+02  2.7850e-01  3.2739e-01  8.5236e-02  3.8044e-03  5.7085e-01  4.2512e-01  0:55:03  466
    35  3.4732e+02  2.5309e-01  3.8517e-01  9.1050e-02  4.0305e-03  7.5609e-01  5.2035e-01  0:54:25  465
    36  3.4347e+02  2.9995e-01  3.4254e-01  9.5834e-02  4.7401e-03  8.4285e-01  5.3830e-01  0:53:36  464
    37  3.7375e+02  3.1211e-01  3.4924e-01  9.0550e-02  4.4222e-03  7.8060e-01  4.7154e-01  0:53:04  463
    38  3.8657e+02  2.5055e-01  3.8883e-01  8.8592e-02  4.5864e-03  9.0886e-01  6.2560e-01  0:52:38  462
    39  3.9312e+02  2.6316e-01  3.9611e-01  8.5527e-02  5.4153e-03  7.8648e-01  4.5922e-01  0:52:27  461
    40  4.0233e+02  2.8582e-01  3.6078e-01  8.1867e-02  4.4638e-03  7.2734e-01  4.7675e-01  0:52:18  460
    41  4.2856e+02  2.3760e-01  3.6767e-01  8.4181e-02  6.0406e-03  8.0301e-01  5.4563e-01  0:52:05  459
    42  4.4399e+02  2.6018e-01  3.9087e-01  9.0828e-02  5.0660e-03  7.3398e-01  4.5335e-01  0:51:51  458
    43  4.5385e+02  2.5932e-01  3.3903e-01  8.1001e-02  5.6773e-03  7.6333e-01  5.2825e-01  0:51:34  457
    44  4.6267e+02  2.4165e-01  4.0297e-01  9.1094e-02  5.1395e-03  8.1175e-01  5.0519e-01  0:51:11  456

  iter  continuity  x-velocity  y-velocity  z-velocity      energy           k       omega     time/iter
    45  4.7540e+02  2.4400e-01  3.5291e-01  8.8492e-02  6.4284e-03  7.7253e-01  4.8818e-01  0:50:51  455
    46  5.1932e+02  2.6680e-01  4.0167e-01  9.4512e-02  5.6066e-03  7.9625e-01  5.4304e-01  0:50:33  454
    47  5.1961e+02  2.3590e-01  3.8271e-01  8.8935e-02  8.0391e-03  8.2925e-01  4.9135e-01  0:50:14  453
    48  5.3388e+02  2.6525e-01  3.8668e-01  9.0042e-02  6.8453e-03  8.0288e-01  4.8092e-01  0:50:09  452
    49  5.5967e+02  2.5719e-01  3.6548e-01  9.4674e-02  6.6304e-03  7.6783e-01  5.1316e-01  0:50:03  451
    50  5.7841e+02  2.5224e-01  3.7896e-01  9.5031e-02  7.1787e-03  8.5511e-01  5.1761e-01  0:49:58  450
    51  5.8562e+02  2.2561e-01  3.3592e-01  8.6011e-02  7.4488e-03  8.1131e-01  5.0487e-01  0:50:02  449
    52  6.2366e+02  2.6704e-01  3.7024e-01  9.3627e-02  7.8503e-03  9.3573e-01  5.7181e-01  0:50:02  448
    53  6.3452e+02  2.3583e-01  3.8833e-01  9.4337e-02  1.5669e-02  8.8478e-01  5.2722e-01  0:49:57  447
    54  6.4081e+02  3.1439e-01  3.4039e-01  8.9741e-02  7.7620e-03  9.0096e-01  5.0917e-01  0:49:54  446
    55  6.8723e+02  2.5447e-01  3.6323e-01  9.6734e-02  1.0315e-02  8.7581e-01  5.1112e-01  0:49:40  445

  iter  continuity  x-velocity  y-velocity  z-velocity      energy           k       omega     time/iter
    56  7.1808e+02  2.8710e-01  3.7570e-01  9.8181e-02  9.3245e-03  8.5898e-01  5.0865e-01  0:49:29  444
    57  7.0790e+02  2.4879e-01  3.9678e-01  9.5380e-02  8.1255e-03  8.2377e-01  4.9788e-01  0:49:21  443
    58  7.5576e+02  2.6632e-01  3.9469e-01  1.0260e-01  1.8867e-02  8.6274e-01  5.3906e-01  0:49:07  442
    59  7.8617e+02  3.4112e-01  2.8453e-01  9.0748e-02  1.1081e-02  8.5740e-01  5.2193e-01  0:48:57  441
    60  8.5772e+02  3.0807e-01  3.7615e-01  1.0291e-01  1.1841e-02  1.0009e+00  6.2412e-01  0:48:57  440
    61  8.1104e+02  3.3039e-01  3.2276e-01  1.0562e-01  1.0180e-02  9.1266e-01  5.0364e-01  0:48:53  439
    62  8.8755e+02  2.9700e-01  3.8617e-01  1.1388e-01  1.0756e-02  9.4643e-01  5.4543e-01  0:48:52  438
    63  9.1564e+02  3.1237e-01  3.7363e-01  1.0940e-01  1.1778e-02  8.6300e-01  4.8619e-01  0:48:50  437
    64  8.8973e+02  2.7057e-01  4.0711e-01  1.0206e-01  1.1200e-02  8.2517e-01  4.9721e-01  0:48:47  436
    65  9.2208e+02  2.7268e-01  4.2957e-01  1.1099e-01  1.0910e-02  9.0572e-01  5.3646e-01  0:48:38  435
    66  9.9216e+02  2.7071e-01  4.0843e-01  1.0991e-01  1.3661e-02  8.6018e-01  4.9702e-01  0:48:34  434

  iter  continuity  x-velocity  y-velocity  z-velocity      energy           k       omega     time/iter
    67  9.9375e+02  2.8335e-01  3.6123e-01  1.0192e-01  1.3896e-02  8.5384e-01  5.1685e-01  0:48:21  433
    68  1.0099e+03  2.8267e-01  3.8153e-01  1.0699e-01  1.3046e-02  1.0618e+00  6.5109e-01  0:48:17  432
    69  1.0235e+03  3.0102e-01  3.5569e-01  1.0686e-01  1.3110e-02  9.3743e-01  5.1935e-01  0:47:59  431
    70  1.1002e+03  2.8193e-01  3.9226e-01  1.1292e-01  1.5532e-02  9.2710e-01  5.1438e-01  0:47:44  430
    71  1.0690e+03  2.8575e-01  3.9757e-01  1.0963e-01  1.1051e-02  9.3634e-01  5.3614e-01  0:47:33  429
    72  1.1243e+03  2.8130e-01  4.2283e-01  1.1409e-01  1.4881e-02  9.0409e-01  5.0652e-01  0:47:26  428
    73  1.1014e+03  2.6771e-01  3.4993e-01  1.0380e-01  1.1476e-02  9.2489e-01  5.2264e-01  0:47:18  427
    74  1.1763e+03  2.8560e-01  3.9885e-01  1.1645e-01  1.6507e-02  9.6102e-01  5.4870e-01  0:47:16  426
    75  1.1531e+03  3.0411e-01  4.0502e-01  1.1224e-01  1.1799e-02  9.1352e-01  5.0331e-01  0:47:10  425
    76  1.1723e+03  2.7927e-01  4.1950e-01  1.1574e-01  1.3968e-02  9.5005e-01  5.4728e-01  0:47:14  424
    77  1.1727e+03  2.7899e-01  3.6345e-01  1.1079e-01  1.2989e-02  9.2070e-01  5.1683e-01  0:47:10  423

  iter  continuity  x-velocity  y-velocity  z-velocity      energy           k       omega     time/iter
    78  1.2633e+03  2.7142e-01  4.0875e-01  1.1511e-01  1.4970e-02  9.5169e-01  5.5003e-01  0:47:06  422
    79  1.2668e+03  2.7544e-01  3.9701e-01  1.0782e-01  1.4975e-02  9.4575e-01  5.4164e-01  0:47:02  421
    80  1.3103e+03  2.7008e-01  3.8872e-01  1.1533e-01  1.5069e-02  9.6626e-01  5.4263e-01  0:46:59  420
    81  1.3046e+03  2.7010e-01  3.7111e-01  1.1025e-01  2.2667e-02  1.0417e+00  5.9252e-01  0:46:50  419
    82  1.4691e+03  3.3112e-01  4.1006e-01  1.2378e-01  1.6251e-02  9.6184e-01  5.2178e-01  0:46:39  418
    83  1.3988e+03  2.7978e-01  4.0211e-01  1.1505e-01  1.8453e-02  9.6058e-01  5.2450e-01  0:46:35  417
    84  1.4345e+03  2.8396e-01  4.3297e-01  1.2240e-01  1.7443e-02  9.8237e-01  5.4162e-01  0:46:27  416
    85  1.4836e+03  2.7703e-01  3.7599e-01  1.1146e-01  1.8929e-02  9.9506e-01  5.3456e-01  0:46:25  415
    86  1.5882e+03  2.8340e-01  3.9610e-01  1.1091e-01  1.8969e-02  9.7765e-01  5.3002e-01  0:46:20  414
    87  1.5763e+03  2.7738e-01  4.1409e-01  1.2111e-01  1.8998e-02  9.5262e-01  5.2358e-01  0:46:06  413
    88  1.5750e+03  2.8821e-01  3.7061e-01  1.1942e-01  1.4363e-02  9.7461e-01  5.3356e-01  0:46:03  412

  iter  continuity  x-velocity  y-velocity  z-velocity      energy           k       omega     time/iter
    89  1.6420e+03  2.5866e-01  4.1205e-01  1.1859e-01  1.7222e-02  1.0011e+00  5.4222e-01  0:45:53  411
    90  1.7121e+03  2.7749e-01  3.9789e-01  1.2074e-01  2.0626e-02  9.5364e-01  5.1621e-01  0:45:50  410
    91  1.7439e+03  2.5642e-01  3.9693e-01  1.1153e-01  1.8657e-02  9.9145e-01  5.4345e-01  0:45:45  409
    92  1.7569e+03  2.8013e-01  3.9186e-01  1.2029e-01  2.5521e-02  1.0170e+00  5.5985e-01  0:45:39  408
    93  1.8561e+03  2.5389e-01  3.6035e-01  1.0928e-01  2.0842e-02  9.7165e-01  5.3189e-01  0:45:26  407
    94  1.9656e+03  2.5655e-01  4.0468e-01  1.1218e-01  2.3580e-02  1.1093e+00  6.0518e-01  0:45:17  406
    95  1.9792e+03  2.6151e-01  4.0111e-01  1.2332e-01  2.6610e-02  9.7548e-01  5.2531e-01  0:45:13  405
    96  1.9992e+03  2.8446e-01  3.6017e-01  1.1306e-01  2.2778e-02  9.6521e-01  5.2043e-01  0:45:04  404
    97  2.0328e+03  2.8883e-01  4.1233e-01  1.2449e-01  2.1594e-02  1.0101e+00  5.4222e-01  0:44:54  403
    98  2.0280e+03  2.9367e-01  4.2122e-01  1.3274e-01  2.2019e-02  9.9587e-01  5.2535e-01  0:44:47  402
    99  2.1581e+03  2.5594e-01  4.2080e-01  1.2117e-01  2.4566e-02  1.0198e+00  5.3596e-01  0:44:37  401

  iter  continuity  x-velocity  y-velocity  z-velocity      energy           k       omega     time/iter
   100  2.1320e+03  2.8523e-01  3.4896e-01  1.1537e-01  2.8444e-02  9.9251e-01  5.3746e-01  0:44:25  400
   101  2.2982e+03  2.3686e-01  3.8244e-01  1.1343e-01  2.5496e-02  1.0557e+00  5.6973e-01  0:44:23  399
   102  2.2799e+03  2.2887e-01  3.8381e-01  1.0926e-01  2.4842e-02  1.0681e+00  5.7217e-01  0:44:27  398
   103  2.4533e+03  2.4486e-01  4.5310e-01  1.3171e-01  3.1469e-02  1.0108e+00  5.3756e-01  0:44:27  397
   104  2.4200e+03  2.7525e-01  3.6408e-01  1.1943e-01  2.0120e-02  9.6856e-01  5.1428e-01  0:44:19  396
   105  2.5717e+03  2.8630e-01  3.9708e-01  1.2161e-01  2.4442e-02  1.0614e+00  5.5140e-01  0:44:14  395
   106  2.3864e+03  2.6152e-01  3.8615e-01  1.1876e-01  2.2345e-02  9.8172e-01  5.1605e-01  0:44:06  394
   107  2.5351e+03  2.6502e-01  4.2821e-01  1.2675e-01  2.3760e-02  1.0520e+00  5.4535e-01  0:43:58  393
   108  2.5128e+03  2.4814e-01  3.4109e-01  1.0965e-01  2.4417e-02  1.0194e+00  5.4017e-01  0:43:51  392
   109  2.7451e+03  2.5396e-01  4.2761e-01  1.1641e-01  3.0906e-02  1.0139e+00  5.4950e-01  0:43:45  391
   110  2.6442e+03  2.0351e-01  4.0910e-01  1.0561e-01  8.4342e-02  1.0265e+00  5.5121e-01  0:43:36  390

  iter  continuity  x-velocity  y-velocity  z-velocity      energy           k       omega     time/iter
   111  2.8219e+03  2.5390e-01  4.9485e-01  1.1680e-01  3.8195e-02  1.0507e+00  5.6042e-01  0:43:22  389
   112  2.8438e+03  2.8055e-01  3.9549e-01  1.2183e-01  2.7376e-02  1.0226e+00  5.4818e-01  0:43:09  388
   113  2.9621e+03  2.6600e-01  3.9377e-01  1.1818e-01  2.6114e-02  9.7895e-01  5.1914e-01  0:43:07  387
   114  2.9105e+03  2.6934e-01  4.2578e-01  1.2118e-01  2.8411e-02  1.0483e+00  5.4929e-01  0:43:07  386
   115  2.9630e+03  2.6115e-01  4.1084e-01  1.2433e-01  3.0325e-02  1.0275e+00  5.4092e-01  0:43:17  385
   116  3.2181e+03  2.8830e-01  3.6540e-01  1.1497e-01  3.2399e-02  1.0686e+00  5.6424e-01  0:43:14  384
   117  3.2737e+03  2.1589e-01  4.0151e-01  1.0903e-01  2.6451e-02  9.9177e-01  5.2383e-01  0:43:10  383
   118  3.2491e+03  2.3598e-01  3.9983e-01  1.1587e-01  3.0581e-02  1.0400e+00  5.5541e-01  0:43:01  382
   119  3.1072e+03  2.6011e-01  3.8505e-01  1.1575e-01  2.7807e-02  1.0448e+00  5.5397e-01  0:42:46  381
   120  3.5254e+03  3.0484e-01  4.1129e-01  1.3861e-01  2.6774e-02  1.0123e+00  5.3938e-01  0:42:33  380
   121  3.3447e+03  2.3319e-01  3.7343e-01  1.2025e-01  2.5527e-02  1.0042e+00  5.3143e-01  0:42:22  379

  iter  continuity  x-velocity  y-velocity  z-velocity      energy           k       omega     time/iter
   122  3.5755e+03  2.6749e-01  4.5829e-01  1.3315e-01  3.5176e-02  1.0527e+00  5.4871e-01  0:42:10  378
   123  3.3033e+03  2.5559e-01  3.8360e-01  1.1771e-01  2.5046e-02  9.9022e-01  5.1397e-01  0:41:57  377
   124  3.8546e+03  3.0219e-01  4.1352e-01  1.3310e-01  3.2297e-02  1.1585e+00  5.9158e-01  0:41:51  376
   125  3.6116e+03  2.2759e-01  4.0584e-01  1.1635e-01  2.5266e-02  9.8318e-01  5.2068e-01  0:41:59  375
   126  3.8127e+03  2.5922e-01  4.5759e-01  1.2749e-01  3.0975e-02  1.0813e+00  5.6994e-01  0:42:04  374
   127  3.5434e+03  2.8272e-01  3.6864e-01  1.2013e-01  4.1020e-02  1.0613e+00  5.6722e-01  0:41:57  373
   128  4.2115e+03  2.8142e-01  4.9126e-01  1.4817e-01  3.1661e-02  1.0130e+00  5.2627e-01  0:41:43  372
   129  3.8445e+03  2.5876e-01  3.9744e-01  1.2347e-01  2.5486e-02  1.0069e+00  5.2948e-01  0:41:36  371
   130  4.0091e+03  2.5087e-01  4.6302e-01  1.3207e-01  3.1627e-02  1.0581e+00  5.4744e-01  0:41:33  370
   131  3.7521e+03  3.0835e-01  3.7598e-01  1.2821e-01  2.5600e-02  1.0087e+00  5.2585e-01  0:41:18  369
   132  4.3464e+03  2.9127e-01  4.5115e-01  1.4119e-01  3.1736e-02  1.0561e+00  5.4925e-01  0:41:02  368

  iter  continuity  x-velocity  y-velocity  z-velocity      energy           k       omega     time/iter
   133  3.9407e+03  2.3601e-01  3.7698e-01  1.1673e-01  3.1357e-02  1.0057e+00  5.2546e-01  0:40:47  367
   134  4.2781e+03  2.5043e-01  4.4628e-01  1.3021e-01  3.2936e-02  1.0780e+00  5.6531e-01  0:40:29  366
   135  3.9640e+03  2.8234e-01  3.6940e-01  1.2586e-01  2.9487e-02  1.0440e+00  5.5273e-01  0:40:22  365
   136  4.4145e+03  3.1034e-01  4.4383e-01  1.4497e-01  2.6253e-02  1.0320e+00  5.3964e-01  0:40:17  364
   137  4.2780e+03  2.6911e-01  4.0318e-01  1.3365e-01  3.3963e-02  1.0541e+00  5.5167e-01  0:40:09  363
   138  4.7234e+03  2.6715e-01  4.5980e-01  1.4272e-01  3.1236e-02  1.0172e+00  5.3055e-01  0:40:16  362
   139  4.1084e+03  2.6110e-01  3.4625e-01  1.2504e-01  2.4279e-02  9.9852e-01  5.1796e-01  0:40:13  361
   140  4.7368e+03  3.4923e-01  4.7694e-01  1.6402e-01  3.3964e-02  1.1413e+00  5.8527e-01  0:40:09  360
   141  4.2530e+03  2.4673e-01  3.6923e-01  1.1763e-01  2.3156e-02  1.0043e+00  5.2035e-01  0:40:14  359
   142  4.8540e+03  3.1007e-01  4.7326e-01  1.5309e-01  3.2872e-02  1.0779e+00  5.6240e-01  0:40:10  358
   143  4.3554e+03  2.9705e-01  3.8380e-01  1.3883e-01  2.7030e-02  9.8021e-01  5.1556e-01  0:39:58  357

  iter  continuity  x-velocity  y-velocity  z-velocity      energy           k       omega     time/iter
   144  4.7597e+03  3.0392e-01  4.3346e-01  1.4509e-01  3.3113e-02  1.1091e+00  5.7213e-01  0:39:45  356
   145  4.5679e+03  3.0731e-01  4.1186e-01  1.3751e-01  2.7893e-02  1.0152e+00  5.2633e-01  0:39:35  355
   146  5.0097e+03  2.7154e-01  4.3645e-01  1.3930e-01  2.7653e-02  1.0273e+00  5.3114e-01  0:39:25  354
   147  4.4340e+03  2.6739e-01  3.6217e-01  1.2932e-01  2.4045e-02  1.0335e+00  5.4460e-01  0:39:19  353
   148  5.1487e+03  3.4032e-01  4.6686e-01  1.5993e-01  3.8297e-02  1.0809e+00  5.7139e-01  0:39:10  352
   149  4.7486e+03  2.1931e-01  3.6793e-01  1.1092e-01  3.1344e-02  1.0108e+00  5.2483e-01  0:39:03  351
   150  5.4442e+03  2.9933e-01  4.4302e-01  1.4709e-01  3.3707e-02  1.1299e+00  5.8965e-01  0:38:57  350
   151  4.8891e+03  2.7786e-01  3.5961e-01  1.2673e-01  2.6585e-02  9.9257e-01  5.2236e-01  0:38:59  349
   152  5.1140e+03  3.0007e-01  4.0074e-01  1.3983e-01  2.5509e-02  1.0618e+00  5.5879e-01  0:38:54  348
   153  4.9276e+03  2.9175e-01  4.2407e-01  1.5231e-01  2.6815e-02  1.0142e+00  5.2340e-01  0:38:48  347
   154  5.5962e+03  2.8437e-01  4.4780e-01  1.4804e-01  3.5322e-02  9.8781e-01  5.1136e-01  0:38:44  346

  iter  continuity  x-velocity  y-velocity  z-velocity      energy           k       omega     time/iter
   155  4.9838e+03  3.0541e-01  3.6510e-01  1.2529e-01  2.5494e-02  1.0674e+00  5.5448e-01  0:38:34  345
   156  5.5865e+03  2.9800e-01  4.4820e-01  1.4415e-01  3.4119e-02  1.0601e+00  5.5147e-01  0:38:24  344
   157  5.1603e+03  2.3135e-01  3.9022e-01  1.2629e-01  2.6674e-02  1.0497e+00  5.5023e-01  0:38:14  343
   158  5.9011e+03  2.8929e-01  4.5016e-01  1.4872e-01  4.6755e-02  1.0681e+00  5.6509e-01  0:38:04  342
   159  5.5195e+03  2.9846e-01  3.7301e-01  1.2579e-01  2.7079e-02  9.9309e-01  5.1535e-01  0:38:00  341
   160  5.7075e+03  2.8205e-01  4.3087e-01  1.3757e-01  2.7247e-02  1.0562e+00  5.5061e-01  0:37:07  340
   161  5.5709e+03  2.9809e-01  4.1853e-01  1.3666e-01  2.6367e-02  1.0236e+00  5.2900e-01  0:37:05  339
   162  5.6266e+03  2.8474e-01  4.0042e-01  1.3548e-01  2.5251e-02  1.0211e+00  5.1985e-01  0:37:07  338
   163  5.8290e+03  3.0413e-01  4.1659e-01  1.4089e-01  2.9169e-02  1.0844e+00  5.5805e-01  0:37:13  337
   164  6.1623e+03  2.5702e-01  3.9767e-01  1.2598e-01  3.4277e-02  1.0328e+00  5.4037e-01  0:37:13  336
   165  5.8046e+03  2.2044e-01  3.7509e-01  1.1813e-01  2.8724e-02  1.0449e+00  5.4841e-01  0:37:19  335

  iter  continuity  x-velocity  y-velocity  z-velocity      energy           k       omega     time/iter
   166  6.2061e+03  2.7839e-01  4.4133e-01  1.4024e-01  3.9311e-02  1.0650e+00  5.4908e-01  0:37:14  334
   167  6.0697e+03  2.6047e-01  4.0556e-01  1.2752e-01  2.6321e-02  1.0156e+00  5.2168e-01  0:37:08  333
   168  6.2958e+03  2.6381e-01  4.5358e-01  1.3664e-01  2.7614e-02  1.0492e+00  5.4478e-01  0:36:13  332
   169  6.3700e+03  2.8242e-01  4.4995e-01  1.4195e-01  3.3271e-02  1.0409e+00  5.3889e-01  0:36:15  331
   170  6.0875e+03  2.8482e-01  3.9585e-01  1.2779e-01  2.8404e-02  1.0354e+00  5.3256e-01  0:36:12  330
   171  6.3069e+03  3.4200e-01  4.1650e-01  1.4140e-01  3.1671e-02  1.0802e+00  5.6398e-01  0:36:08  329
   172  6.6842e+03  2.6512e-01  4.1512e-01  1.3157e-01  3.3475e-02  1.0063e+00  5.2080e-01  0:36:05  328
   173  6.3706e+03  2.2778e-01  3.6135e-01  1.1545e-01  2.7210e-02  1.0445e+00  5.3961e-01  0:36:04  327
   174  6.6913e+03  2.9677e-01  3.9527e-01  1.4078e-01  3.4394e-02  1.0855e+00  5.6035e-01  0:35:57  326
   175  6.5690e+03  2.8212e-01  4.0465e-01  1.2767e-01  2.9044e-02  1.0108e+00  5.2614e-01  0:35:57  325
   176  6.5630e+03  2.3495e-01  4.2856e-01  1.2888e-01  2.9986e-02  1.0399e+00  5.4054e-01  0:35:56  324

  iter  continuity  x-velocity  y-velocity  z-velocity      energy           k       omega     time/iter
   177  7.0519e+03  3.0945e-01  4.2336e-01  1.4256e-01  2.8428e-02  1.0501e+00  5.4156e-01  0:35:57  323
   178  7.1049e+03  2.6464e-01  3.5441e-01  1.2659e-01  3.5918e-02  1.0133e+00  5.2048e-01  0:35:49  322
   179  7.1896e+03  3.1155e-01  4.0290e-01  1.3491e-01  3.4378e-02  1.1010e+00  5.6779e-01  0:35:44  321
   180  7.4224e+03  2.9864e-01  3.7926e-01  1.3461e-01  4.2447e-02  1.0613e+00  5.4760e-01  0:35:34  320
   181  7.6041e+03  2.3567e-01  3.9194e-01  1.2804e-01  3.7005e-02  1.0436e+00  5.4564e-01  0:34:40  319
   182  7.2698e+03  2.9643e-01  3.5229e-01  1.2179e-01  3.0282e-02  1.0385e+00  5.3268e-01  0:33:54  318
   183  7.8158e+03  2.9625e-01  4.4674e-01  1.4466e-01  3.0023e-02  1.0233e+00  5.2764e-01  0:34:22  317
   184  7.2680e+03  2.4122e-01  4.1361e-01  1.3042e-01  2.7388e-02  9.9293e-01  5.1117e-01  0:33:43  316
   185  8.1377e+03  2.9247e-01  4.4198e-01  1.4264e-01  3.2895e-02  1.1049e+00  5.5640e-01  0:33:53  315
   186  7.3498e+03  2.7898e-01  3.5869e-01  1.2553e-01  3.6399e-02  1.0019e+00  5.1592e-01  0:34:03  314
   187  7.8786e+03  2.9775e-01  4.0975e-01  1.3814e-01  3.7057e-02  1.0996e+00  5.6486e-01  0:34:05  313

  iter  continuity  x-velocity  y-velocity  z-velocity      energy           k       omega     time/iter
   188  7.8648e+03  2.7227e-01  3.8624e-01  1.2418e-01  3.7815e-02  1.0434e+00  5.4060e-01  0:34:07  312
   189  8.2814e+03  2.4816e-01  4.1628e-01  1.3556e-01  3.4794e-02  1.0354e+00  5.3758e-01  0:34:08  311
   190  7.8360e+03  2.8737e-01  3.5462e-01  1.2185e-01  2.7089e-02  1.0323e+00  5.3567e-01  0:33:29  310
   191  8.1857e+03  2.8487e-01  4.3997e-01  1.4777e-01  3.1779e-02  1.0262e+00  5.3156e-01  0:32:54  309
   192  8.0570e+03  2.5486e-01  4.3774e-01  1.3330e-01  2.9736e-02  1.0184e+00  5.2107e-01  0:32:31  308
   193  8.4070e+03  2.8378e-01  4.2270e-01  1.4653e-01  3.1553e-02  1.0987e+00  5.5552e-01  0:32:00  307
   194  8.9711e+03  2.9629e-01  4.1082e-01  1.3734e-01  3.5583e-02  1.0434e+00  5.3084e-01  0:32:16  306
   195  8.5584e+03  2.4335e-01  3.7055e-01  1.2093e-01  2.8956e-02  1.0615e+00  5.4686e-01  0:32:31  305
   196  8.6326e+03  2.3921e-01  3.8133e-01  1.2241e-01  4.6224e-02  1.0906e+00  5.7130e-01  0:32:03  304
   197  9.4835e+03  2.5963e-01  3.9678e-01  1.2954e-01  3.3039e-02  1.0235e+00  5.3076e-01  0:32:14  303
   198  9.0200e+03  2.6528e-01  3.3114e-01  1.2111e-01  2.6863e-02  1.0099e+00  5.2375e-01  0:31:44  302

  iter  continuity  x-velocity  y-velocity  z-velocity      energy           k       omega     time/iter
   199  9.6992e+03  2.7489e-01  4.0648e-01  1.4293e-01  3.3968e-02  1.0461e+00  5.4060e-01  0:31:15  301
   200  9.4030e+03  1.9953e-01  3.8461e-01  1.1697e-01  3.3571e-02  1.0098e+00  5.1444e-01  0:30:55  300
   201  1.0423e+04  2.6654e-01  3.8322e-01  1.3222e-01  3.5569e-02  1.1270e+00  5.6910e-01  0:31:27  299
   202  1.0338e+04  2.5765e-01  3.2678e-01  1.2316e-01  3.6627e-02  1.0356e+00  5.3433e-01  0:31:46  298
   203  1.0486e+04  2.3256e-01  3.3698e-01  1.2309e-01  3.1068e-02  1.0269e+00  5.2860e-01  0:31:17  297
   204  1.0535e+04  2.3193e-01  3.4910e-01  1.2081e-01  3.2372e-02  1.0773e+00  5.6167e-01  0:30:48  296
   205  1.1362e+04  2.2132e-01  3.7562e-01  1.2993e-01  3.4078e-02  1.0194e+00  5.2299e-01  0:31:04  295
   206  1.1334e+04  2.4077e-01  3.0295e-01  1.1769e-01  3.0003e-02  1.0368e+00  5.3543e-01  0:30:39  294
   207  1.2132e+04  2.1665e-01  3.5367e-01  1.2885e-01  3.0894e-02  1.0549e+00  5.4791e-01  0:30:56  293
   208  1.1587e+04  1.7118e-01  3.1414e-01  1.1075e-01  3.2524e-02  1.0265e+00  5.2861e-01  0:30:31  292
   209  1.3268e+04  2.3451e-01  3.3530e-01  1.2646e-01  4.0744e-02  1.1111e+00  5.7443e-01  0:30:48  291

  iter  continuity  x-velocity  y-velocity  z-velocity      energy           k       omega     time/iter
   210  1.3617e+04  2.2479e-01  2.7817e-01  1.1662e-01  4.3054e-02  1.0270e+00  5.3088e-01  0:30:18  290
   211  1.4040e+04  2.3181e-01  2.9090e-01  1.2263e-01  3.0684e-02  1.0194e+00  5.2556e-01  0:29:58  289
   212  1.4989e+04  1.8404e-01  3.1965e-01  1.2458e-01  3.6633e-02  1.0941e+00  5.7425e-01  0:29:40  288
   213  1.6112e+04  1.9918e-01  3.0544e-01  1.2702e-01  3.5339e-02  1.0175e+00  5.2392e-01  0:30:11  287
   214  1.6334e+04  1.9437e-01  2.5560e-01  1.1256e-01  2.7295e-02  1.0163e+00  5.2750e-01  0:29:48  286
   215  1.7150e+04  1.6715e-01  2.5809e-01  1.1824e-01  2.6860e-02  1.0152e+00  5.3080e-01  0:29:30  285
   216  1.7941e+04  1.3459e-01  2.4551e-01  1.0735e-01  2.8860e-02  1.0065e+00  5.2126e-01  0:29:16  284
   217  1.8921e+04  1.4478e-01  2.2518e-01  1.0885e-01  2.6824e-02  9.8926e-01  5.1160e-01  0:29:04  283
   218  2.1307e+04  1.4890e-01  1.9945e-01  1.1016e-01  3.0636e-02  9.8420e-01  5.2866e-01  0:28:53  282
   219  2.2779e+04  1.2260e-01  2.0548e-01  1.1164e-01  2.7996e-02  9.2576e-01  4.8740e-01  0:28:43  281
   220  2.6233e+04  1.1282e-01  2.0556e-01  1.2123e-01  2.7824e-02  9.3048e-01  5.0696e-01  0:28:33  280

  iter  continuity  x-velocity  y-velocity  z-velocity      energy           k       omega     time/iter
   221  3.0261e+04  1.1677e-01  1.6519e-01  1.2850e-01  2.2115e-02  8.6155e-01  4.6545e-01  0:28:28  279
   222  3.7790e+04  8.5774e-02  1.3156e-01  1.2644e-01  2.1078e-02  8.0689e-01  4.5835e-01  0:28:18  278
   223  4.7421e+04  6.6455e-02  1.0314e-01  1.0836e-01  1.6020e-02  7.3478e-01  4.0477e-01  0:28:04  277
   224  6.1366e+04  4.5324e-02  6.7142e-02  8.2860e-02  1.1849e-02  6.8234e-01  4.0297e-01  0:27:53  276
   225  7.8604e+04  3.6762e-02  5.7092e-02  7.8974e-02  1.0963e-02  6.2333e-01  3.4949e-01  0:27:46  275
   226  1.0581e+05  3.3467e-02  5.1259e-02  7.7735e-02  1.1532e-02  5.0838e-01  3.5791e-01  0:27:41  274
   227  1.4421e+05  3.3788e-02  4.8071e-02  8.4670e-02  1.1805e-02  4.8206e-01  3.7786e-01  0:27:33  273
   228  1.9907e+05  3.6380e-02  5.0390e-02  9.4939e-02  1.2311e-02  5.2524e-01  3.8583e-01  0:27:30  272
   229  2.7009e+05  4.0473e-02  5.5751e-02  1.0971e-01  1.2447e-02  5.2761e-01  3.5748e-01  0:27:25  271
   230  3.7028e+05  4.3826e-02  6.0584e-02  1.2476e-01  1.3147e-02  4.8605e-01  3.4773e-01  0:27:21  270
   231  5.1221e+05  4.6900e-02  6.4644e-02  1.3526e-01  1.3290e-02  4.7273e-01  3.4154e-01  0:27:15  269

 turbulent viscosity limited to viscosity ratio of 1.000000e+05 in 120 cells 

  iter  continuity  x-velocity  y-velocity  z-velocity      energy           k       omega     time/iter
   232  6.8973e+05  4.8050e-02  6.3562e-02  1.3516e-01  1.3544e-02  5.3948e-01  3.5999e-01  0:27:13  268

 turbulent viscosity limited to viscosity ratio of 1.000000e+05 in 771 cells 
   233  9.1086e+05  4.8397e-02  6.4019e-02  1.2964e-01  1.3385e-02  5.3780e-01  3.4637e-01  0:27:08  267

 turbulent viscosity limited to viscosity ratio of 1.000000e+05 in 1106 cells 
   234  1.1450e+06  4.5481e-02  6.1432e-02  1.1792e-01  1.3869e-02  5.2194e-01  3.3656e-01  0:27:01  266

 turbulent viscosity limited to viscosity ratio of 1.000000e+05 in 1199 cells 
   235  1.4135e+06  4.5780e-02  5.9666e-02  1.0838e-01  1.4232e-02  5.6850e-01  3.3650e-01  0:26:55  265

 turbulent viscosity limited to viscosity ratio of 1.000000e+05 in 1160 cells 
   236  1.7720e+06  4.3730e-02  5.9106e-02  1.0444e-01  1.4920e-02  6.2788e-01  3.6739e-01  0:26:47  264

 turbulent viscosity limited to viscosity ratio of 1.000000e+05 in 1325 cells 
   237  2.1378e+06  4.2293e-02  5.1024e-02  9.7966e-02  1.5316e-02  7.0288e-01  3.8656e-01  0:26:34  263

 turbulent viscosity limited to viscosity ratio of 1.000000e+05 in 2721 cells 
   238  2.5113e+06  4.2486e-02  5.1202e-02  9.4366e-02  1.6761e-02  7.3792e-01  4.1377e-01  0:26:25  262

 turbulent viscosity limited to viscosity ratio of 1.000000e+05 in 5646 cells 
   239  3.0307e+06  4.2761e-02  5.2613e-02  9.6167e-02  1.7932e-02  7.1496e-01  4.2146e-01  0:26:24  261

 turbulent viscosity limited to viscosity ratio of 1.000000e+05 in 10614 cells 
   240  3.7077e+06  4.7160e-02  5.4928e-02  1.0182e-01  2.0853e-02  6.8167e-01  4.2770e-01  0:26:21  260

 turbulent viscosity limited to viscosity ratio of 1.000000e+05 in 19698 cells 
   241  4.7060e+06  4.9888e-02  5.6453e-02  1.1567e-01  2.2321e-02  6.3274e-01  4.1567e-01  0:26:18  259

 turbulent viscosity limited to viscosity ratio of 1.000000e+05 in 31056 cells 
   242  6.2129e+06  5.3307e-02  6.4178e-02  1.2802e-01  2.2610e-02  5.9962e-01  3.9984e-01  0:26:13  258

 turbulent viscosity limited to viscosity ratio of 1.000000e+05 in 46894 cells 

  iter  continuity  x-velocity  y-velocity  z-velocity      energy           k       omega     time/iter
   243  8.1516e+06  5.6943e-02  6.7149e-02  1.3664e-01  2.2951e-02  6.0393e-01  4.0914e-01  0:26:11  257

 turbulent viscosity limited to viscosity ratio of 1.000000e+05 in 72982 cells 
   244  1.0265e+07  5.6450e-02  6.9451e-02  1.3489e-01  2.4364e-02  7.4025e-01  4.3275e-01  0:26:05  256

 turbulent viscosity limited to viscosity ratio of 1.000000e+05 in 105916 cells 
   245  1.3726e+07  5.4663e-02  7.3874e-02  1.3428e-01  2.3113e-02  8.2219e-01  4.0059e-01  0:26:02  255

 turbulent viscosity limited to viscosity ratio of 1.000000e+05 in 128273 cells 
   246  1.6647e+07  4.7949e-02  6.3255e-02  1.1739e-01  2.1616e-02  8.0766e-01  4.2152e-01  0:25:58  254

 turbulent viscosity limited to viscosity ratio of 1.000000e+05 in 137046 cells 
   247  1.8454e+07  4.2954e-02  5.9437e-02  9.8203e-02  2.2793e-02  9.5679e-01  4.7728e-01  0:25:49  253

 turbulent viscosity limited to viscosity ratio of 1.000000e+05 in 139325 cells 
   248  2.2113e+07  4.0568e-02  5.6226e-02  8.7344e-02  2.2965e-02  9.5081e-01  4.6413e-01  0:25:42  252

 turbulent viscosity limited to viscosity ratio of 1.000000e+05 in 131608 cells 
   249  2.5723e+07  3.7697e-02  4.7862e-02  8.6222e-02  2.2571e-02  9.3119e-01  4.6147e-01  0:25:29  251

 turbulent viscosity limited to viscosity ratio of 1.000000e+05 in 131571 cells 
   250  3.0300e+07  3.7843e-02  4.9369e-02  8.9217e-02  2.3917e-02  9.2915e-01  4.5660e-01  0:25:14  250

 turbulent viscosity limited to viscosity ratio of 1.000000e+05 in 131883 cells 
   251  3.7751e+07  3.9603e-02  5.1678e-02  9.9702e-02  2.5266e-02  9.1198e-01  4.5884e-01  0:25:06  249

 turbulent viscosity limited to viscosity ratio of 1.000000e+05 in 137642 cells 
   252  4.9894e+07  4.2103e-02  5.8447e-02  1.1289e-01  2.7800e-02  8.8299e-01  4.5575e-01  0:25:01  248

 turbulent viscosity limited to viscosity ratio of 1.000000e+05 in 144053 cells 
   253  7.0660e+07  4.9469e-02  6.6481e-02  1.3210e-01  3.3964e-02  7.6606e-01  4.3657e-01  0:24:53  247

 turbulent viscosity limited to viscosity ratio of 1.000000e+05 in 152225 cells 

  iter  continuity  x-velocity  y-velocity  z-velocity      energy           k       omega     time/iter
   254  1.0189e+08  5.7833e-02  7.7401e-02  1.6345e-01  4.1264e-02  7.1472e-01  4.3655e-01  0:24:46  246

 turbulent viscosity limited to viscosity ratio of 1.000000e+05 in 157330 cells 
   255  1.2574e+08  6.4195e-02  8.9434e-02  1.7883e-01  4.4985e-02  7.7405e-01  4.3615e-01  0:24:41  245

 turbulent viscosity limited to viscosity ratio of 1.000000e+05 in 162223 cells 
   256  1.4756e+08  6.6510e-02  9.5649e-02  1.6955e-01  4.4657e-02  8.6365e-01  4.4342e-01  0:24:42  244

 turbulent viscosity limited to viscosity ratio of 1.000000e+05 in 164996 cells 
   257  1.5661e+08  6.3978e-02  8.7271e-02  1.5064e-01  4.4491e-02  9.2832e-01  4.6062e-01  0:24:38  243

 turbulent viscosity limited to viscosity ratio of 1.000000e+05 in 175164 cells 
   258  1.8071e+08  6.5208e-02  8.7744e-02  1.4399e-01  4.1841e-02  9.7003e-01  4.8582e-01  0:24:34  242

 turbulent viscosity limited to viscosity ratio of 1.000000e+05 in 183681 cells 
   259  2.0516e+08  6.0429e-02  7.9189e-02  1.3777e-01  4.0890e-02  9.6317e-01  4.8156e-01  0:24:26  241

 turbulent viscosity limited to viscosity ratio of 1.000000e+05 in 188128 cells 
   260  2.3568e+08  6.3185e-02  7.8496e-02  1.3350e-01  4.0459e-02  9.6397e-01  4.7927e-01  0:24:16  240

 turbulent viscosity limited to viscosity ratio of 1.000000e+05 in 191636 cells 
   261  2.9398e+08  5.7218e-02  7.0578e-02  1.2805e-01  4.0119e-02  9.4277e-01  4.6696e-01  0:24:04  239

 turbulent viscosity limited to viscosity ratio of 1.000000e+05 in 193481 cells 
   262  3.6262e+08  5.5753e-02  7.1527e-02  1.3025e-01  3.8955e-02  9.4387e-01  4.6703e-01  0:23:54  238

 turbulent viscosity limited to viscosity ratio of 1.000000e+05 in 198286 cells 
   263  4.6698e+08  5.9531e-02  7.5581e-02  1.3754e-01  3.8129e-02  9.3632e-01  4.5647e-01  0:23:45  237

 turbulent viscosity limited to viscosity ratio of 1.000000e+05 in 201266 cells 
   264  6.0061e+08  6.3893e-02  8.2559e-02  1.5198e-01  4.1942e-02  9.4080e-01  4.6163e-01  0:23:37  236

 absolute pressure limited to 5.000000e+10 in 1 cells on zone 900 

 turbulent viscosity limited to viscosity ratio of 1.000000e+05 in 200271 cells 

  iter  continuity  x-velocity  y-velocity  z-velocity      energy           k       omega     time/iter
   265  7.7282e+08  7.1519e-02  9.3252e-02  1.7230e-01  4.5811e-02  9.3487e-01  4.6279e-01  0:23:32  235

 absolute pressure limited to 5.000000e+10 in 18 cells on zone 900 

 turbulent viscosity limited to viscosity ratio of 1.000000e+05 in 205965 cells 
   266  9.1255e+08  7.5836e-02  9.9733e-02  1.8782e-01  4.5529e-02  9.0782e-01  4.6338e-01  0:23:26  234

 absolute pressure limited to 5.000000e+10 in 36 cells on zone 900 

 turbulent viscosity limited to viscosity ratio of 1.000000e+05 in 216026 cells 
   267  1.0762e+09  7.6958e-02  1.0505e-01  1.8824e-01  4.6832e-02  9.0861e-01  4.6893e-01  0:23:23  233

 absolute pressure limited to 5.000000e+10 in 83 cells on zone 900 

 turbulent viscosity limited to viscosity ratio of 1.000000e+05 in 226436 cells 
   268  1.1079e+09  7.2801e-02  1.0095e-01  1.8287e-01  4.5851e-02  9.6444e-01  4.9246e-01  0:23:23  232

 absolute pressure limited to 5.000000e+10 in 87 cells on zone 900 

 turbulent viscosity limited to viscosity ratio of 1.000000e+05 in 225840 cells 
   269  1.1928e+09  6.6766e-02  9.4002e-02  1.6634e-01  4.3087e-02  9.9024e-01  4.9071e-01  0:23:16  231

 absolute pressure limited to 5.000000e+10 in 129 cells on zone 900 

 turbulent viscosity limited to viscosity ratio of 1.000000e+05 in 220039 cells 
   270  1.3855e+09  6.0225e-02  8.3261e-02  1.5243e-01  4.0082e-02  9.7165e-01  4.8372e-01  0:23:14  230

 absolute pressure limited to 5.000000e+10 in 169 cells on zone 900 

 turbulent viscosity limited to viscosity ratio of 1.000000e+05 in 212377 cells 
   271  1.7447e+09  6.0453e-02  7.8553e-02  1.4435e-01  3.9562e-02  9.7546e-01  4.7881e-01  0:23:12  229

 absolute pressure limited to 5.000000e+10 in 253 cells on zone 900 

 turbulent viscosity limited to viscosity ratio of 1.000000e+05 in 206000 cells 
   272  2.2792e+09  6.2480e-02  8.1836e-02  1.4067e-01  3.9737e-02  9.9371e-01  4.9109e-01  0:23:06  228

 absolute pressure limited to 5.000000e+10 in 378 cells on zone 900 

 turbulent viscosity limited to viscosity ratio of 1.000000e+05 in 201285 cells 
   273  2.9443e+09  6.2792e-02  8.8955e-02  1.3875e-01  3.7742e-02  9.8708e-01  4.8394e-01  0:22:59  227

 absolute pressure limited to 5.000000e+10 in 521 cells on zone 900 

 turbulent viscosity limited to viscosity ratio of 1.000000e+05 in 198255 cells 
   274  3.8119e+09  6.1760e-02  9.4545e-02  1.4182e-01  3.5951e-02  9.8091e-01  4.7331e-01  0:22:46  226

 absolute pressure limited to 5.000000e+10 in 634 cells on zone 900 

 turbulent viscosity limited to viscosity ratio of 1.000000e+05 in 197971 cells 
   275  4.7348e+09  6.9035e-02  1.0556e-01  1.4581e-01  3.7975e-02  9.7941e-01  4.6609e-01  0:22:43  225

 absolute pressure limited to 5.000000e+10 in 1497 cells on zone 900 

 turbulent viscosity limited to viscosity ratio of 1.000000e+05 in 200510 cells 

  iter  continuity  x-velocity  y-velocity  z-velocity      energy           k       omega     time/iter
   276  4.8938e+09  7.8548e-02  1.2402e-01  1.5160e-01  4.1403e-02  9.7959e-01  4.6948e-01  0:22:37  224

 absolute pressure limited to 5.000000e+10 in 26397 cells on zone 900 

 turbulent viscosity limited to viscosity ratio of 1.000000e+05 in 206300 cells 
   277  4.5003e+09  8.5586e-02  1.3499e-01  1.6395e-01  3.9060e-02  9.8254e-01  4.7476e-01  0:22:35  223

 absolute pressure limited to 5.000000e+10 in 82331 cells on zone 900 

 turbulent viscosity limited to viscosity ratio of 1.000000e+05 in 222374 cells 
   278  4.7256e+09  9.1812e-02  1.4001e-01  1.6260e-01  3.9541e-02  9.9511e-01  4.9215e-01  0:22:24  222

 absolute pressure limited to 5.000000e+10 in 150720 cells on zone 900 

 turbulent viscosity limited to viscosity ratio of 1.000000e+05 in 227832 cells 
   279  4.9425e+09  8.9983e-02  1.3422e-01  1.6560e-01  3.6499e-02  9.9571e-01  4.9464e-01  0:22:15  221

 absolute pressure limited to 5.000000e+10 in 228223 cells on zone 900 

 turbulent viscosity limited to viscosity ratio of 1.000000e+05 in 228143 cells 
   280  4.8302e+09  8.6687e-02  1.3718e-01  1.5974e-01  3.9681e-02  9.9914e-01  4.9866e-01  0:22:07  220

 absolute pressure limited to 5.000000e+10 in 251676 cells on zone 900 

 turbulent viscosity limited to viscosity ratio of 1.000000e+05 in 227483 cells 
   281  5.2090e+09  8.8026e-02  1.4839e-01  1.5705e-01  3.8160e-02  9.9962e-01  4.9943e-01  0:22:01  219

 absolute pressure limited to 5.000000e+10 in 260263 cells on zone 900 

 turbulent viscosity limited to viscosity ratio of 1.000000e+05 in 223989 cells 
   282  6.4821e+09  9.5031e-02  1.6230e-01  1.5665e-01  4.7907e-02  9.9893e-01  4.9876e-01  0:21:58  218

 absolute pressure limited to 5.000000e+10 in 261390 cells on zone 900 

 turbulent viscosity limited to viscosity ratio of 1.000000e+05 in 220805 cells 
   283  8.1567e+09  8.7058e-02  1.4878e-01  1.3990e-01  5.1352e-02  9.9953e-01  4.9935e-01  0:21:54  217

 absolute pressure limited to 5.000000e+10 in 262363 cells on zone 900 

 turbulent viscosity limited to viscosity ratio of 1.000000e+05 in 217772 cells 
   284  8.9890e+09  7.4831e-02  1.4926e-01  1.3394e-01  4.8031e-02  9.9922e-01  4.9924e-01  0:21:47  216

 absolute pressure limited to 5.000000e+10 in 262929 cells on zone 900 

 turbulent viscosity limited to viscosity ratio of 1.000000e+05 in 218913 cells 
   285  9.5192e+09  7.5155e-02  1.6096e-01  1.2296e-01  4.4229e-02  9.9780e-01  4.9867e-01  0:21:45  215

 absolute pressure limited to 5.000000e+10 in 263093 cells on zone 900 

 turbulent viscosity limited to viscosity ratio of 1.000000e+05 in 218551 cells 
   286  1.1385e+10  7.9469e-02  1.7950e-01  1.2761e-01  4.1833e-02  9.9487e-01  4.9729e-01  0:21:40  214

 absolute pressure limited to 5.000000e+10 in 263112 cells on zone 900 

 turbulent viscosity limited to viscosity ratio of 1.000000e+05 in 218390 cells 

  iter  continuity  x-velocity  y-velocity  z-velocity      energy           k       omega     time/iter
   287  1.2442e+10  8.3756e-02  1.8294e-01  1.3767e-01  4.0364e-02  9.8810e-01  4.9454e-01  0:21:30  213

 absolute pressure limited to 5.000000e+10 in 263130 cells on zone 900 

 turbulent viscosity limited to viscosity ratio of 1.000000e+05 in 219249 cells 
   288  1.2856e+10  8.4770e-02  1.7965e-01  1.5583e-01  3.8809e-02  9.6977e-01  4.8781e-01  0:21:23  212

 absolute pressure limited to 5.000000e+10 in 263136 cells on zone 900 

 turbulent viscosity limited to viscosity ratio of 1.000000e+05 in 228724 cells 
   289  1.4022e+10  8.6440e-02  1.8133e-01  1.6304e-01  3.3797e-02  9.9827e-01  4.9769e-01  0:21:16  211

 absolute pressure limited to 5.000000e+10 in 263135 cells on zone 900 

 turbulent viscosity limited to viscosity ratio of 1.000000e+05 in 231230 cells 
   290  1.4525e+10  8.1210e-02  1.7972e-01  1.7502e-01  2.8905e-02  9.9368e-01  4.9525e-01  0:21:10  210

 absolute pressure limited to 5.000000e+10 in 263126 cells on zone 900 

 turbulent viscosity limited to viscosity ratio of 1.000000e+05 in 233068 cells 
   291  1.4993e+10  7.5712e-02  1.7063e-01  1.7896e-01  2.5499e-02  9.9147e-01  4.9349e-01  0:21:05  209

 absolute pressure limited to 5.000000e+10 in 263137 cells on zone 900 

 turbulent viscosity limited to viscosity ratio of 1.000000e+05 in 234920 cells 
   292  1.5094e+10  7.2370e-02  1.6446e-01  1.7841e-01  2.3984e-02  9.8476e-01  4.8982e-01  0:20:59  208

 absolute pressure limited to 5.000000e+10 in 263141 cells on zone 900 

 turbulent viscosity limited to viscosity ratio of 1.000000e+05 in 237734 cells 
   293  1.5605e+10  7.4178e-02  1.6721e-01  1.7787e-01  2.1632e-02  9.6591e-01  4.8136e-01  0:20:53  207

 absolute pressure limited to 5.000000e+10 in 263144 cells on zone 900 

 turbulent viscosity limited to viscosity ratio of 1.000000e+05 in 242185 cells 
   294  1.5759e+10  7.1907e-02  1.5962e-01  1.7860e-01  2.2166e-02  9.5568e-01  4.7425e-01  0:20:49  206

 absolute pressure limited to 5.000000e+10 in 263126 cells on zone 900 

 turbulent viscosity limited to viscosity ratio of 1.000000e+05 in 249639 cells 
   295  1.5278e+10  7.5772e-02  1.7066e-01  1.8724e-01  2.1948e-02  9.8040e-01  4.8290e-01  0:20:46  205

 absolute pressure limited to 5.000000e+10 in 263151 cells on zone 900 

 turbulent viscosity limited to viscosity ratio of 1.000000e+05 in 252576 cells 
   296  1.6276e+10  7.8759e-02  1.7918e-01  1.9639e-01  2.2344e-02  9.9901e-01  4.9888e-01  0:20:47  204

 absolute pressure limited to 5.000000e+10 in 263109 cells on zone 900 

 turbulent viscosity limited to viscosity ratio of 1.000000e+05 in 253909 cells 
   297  1.6554e+10  7.9784e-02  1.8373e-01  1.9775e-01  2.1309e-02  9.9511e-01  4.9733e-01  0:20:41  203

 absolute pressure limited to 5.000000e+10 in 263138 cells on zone 900 

 turbulent viscosity limited to viscosity ratio of 1.000000e+05 in 254399 cells 

  iter  continuity  x-velocity  y-velocity  z-velocity      energy           k       omega     time/iter
   298  1.6541e+10  7.8578e-02  1.8711e-01  2.0293e-01  2.1197e-02  9.7584e-01  4.9473e-01  0:20:33  202

 absolute pressure limited to 5.000000e+10 in 263144 cells on zone 900 

 turbulent viscosity limited to viscosity ratio of 1.000000e+05 in 254427 cells 
   299  1.7567e+10  8.1554e-02  1.8784e-01  2.0493e-01  2.0588e-02  9.9340e-01  4.9557e-01  0:20:26  201

 absolute pressure limited to 5.000000e+10 in 263129 cells on zone 900 

 turbulent viscosity limited to viscosity ratio of 1.000000e+05 in 254530 cells 
   300  1.7974e+10  8.1706e-02  1.8817e-01  2.0486e-01  2.1094e-02  9.9658e-01  4.9714e-01  0:20:19  200

 absolute pressure limited to 5.000000e+10 in 263128 cells on zone 900 

 turbulent viscosity limited to viscosity ratio of 1.000000e+05 in 254442 cells 
   301  1.7940e+10  7.9692e-02  1.8595e-01  2.0111e-01  2.1719e-02  9.9404e-01  4.9567e-01  0:20:10  199

 absolute pressure limited to 5.000000e+10 in 263113 cells on zone 900 

 turbulent viscosity limited to viscosity ratio of 1.000000e+05 in 254687 cells 
   302  1.8115e+10  8.2582e-02  1.9142e-01  2.0214e-01  2.1140e-02  9.8046e-01  4.9101e-01  0:20:08  198

 absolute pressure limited to 5.000000e+10 in 263137 cells on zone 900 

 turbulent viscosity limited to viscosity ratio of 1.000000e+05 in 254516 cells 
   303  1.8791e+10  8.1611e-02  1.9216e-01  2.0381e-01  2.2863e-02  9.7902e-01  4.8866e-01  0:20:00  197

 absolute pressure limited to 5.000000e+10 in 263121 cells on zone 900 

 turbulent viscosity limited to viscosity ratio of 1.000000e+05 in 254733 cells 
   304  1.9215e+10  8.1907e-02  1.9774e-01  2.0889e-01  2.3037e-02  9.7461e-01  4.8314e-01  0:19:51  196

 absolute pressure limited to 5.000000e+10 in 263132 cells on zone 900 

 turbulent viscosity limited to viscosity ratio of 1.000000e+05 in 254570 cells 
   305  1.9867e+10  8.3306e-02  1.9834e-01  2.0399e-01  2.4371e-02  9.7282e-01  4.8090e-01  0:19:42  195

 absolute pressure limited to 5.000000e+10 in 263130 cells on zone 900 

 turbulent viscosity limited to viscosity ratio of 1.000000e+05 in 254617 cells 
   306  2.0470e+10  8.5888e-02  2.0246e-01  1.9977e-01  2.3712e-02  9.9546e-01  4.9604e-01  0:19:37  194

 absolute pressure limited to 5.000000e+10 in 263134 cells on zone 900 

 turbulent viscosity limited to viscosity ratio of 1.000000e+05 in 254685 cells 
   307  2.1068e+10  8.3493e-02  2.0040e-01  1.9908e-01  2.3200e-02  9.9724e-01  4.9735e-01  0:19:30  193

 absolute pressure limited to 5.000000e+10 in 263122 cells on zone 900 

 turbulent viscosity limited to viscosity ratio of 1.000000e+05 in 254792 cells 
   308  2.1264e+10  8.2573e-02  1.9679e-01  1.9362e-01  2.2636e-02  9.9436e-01  4.9612e-01  0:19:26  192

 absolute pressure limited to 5.000000e+10 in 263108 cells on zone 900 

 turbulent viscosity limited to viscosity ratio of 1.000000e+05 in 254835 cells 

  iter  continuity  x-velocity  y-velocity  z-velocity      energy           k       omega     time/iter
   309  2.1017e+10  7.9868e-02  1.8942e-01  1.9027e-01  2.2411e-02  9.9741e-01  4.9766e-01  0:19:25  191

 absolute pressure limited to 5.000000e+10 in 263129 cells on zone 900 

 turbulent viscosity limited to viscosity ratio of 1.000000e+05 in 254489 cells 
   310  2.1813e+10  7.8525e-02  1.8860e-01  1.9356e-01  2.4375e-02  9.9521e-01  4.9667e-01  0:19:20  190

 absolute pressure limited to 5.000000e+10 in 263133 cells on zone 900 

 turbulent viscosity limited to viscosity ratio of 1.000000e+05 in 254741 cells 
   311  2.2770e+10  7.8796e-02  1.9027e-01  1.9042e-01  2.4770e-02  9.9726e-01  4.9750e-01  0:19:16  189

 absolute pressure limited to 5.000000e+10 in 263118 cells on zone 900 

 turbulent viscosity limited to viscosity ratio of 1.000000e+05 in 254451 cells 
   312  2.2625e+10  7.8358e-02  1.8946e-01  1.8784e-01  2.2492e-02  9.9963e-01  4.9968e-01  0:19:11  188

 absolute pressure limited to 5.000000e+10 in 263110 cells on zone 900 

 turbulent viscosity limited to viscosity ratio of 1.000000e+05 in 254878 cells 
   313  2.2659e+10  7.5252e-02  1.8211e-01  1.9134e-01  2.1735e-02  9.9818e-01  4.9931e-01  0:19:07  187

 absolute pressure limited to 5.000000e+10 in 263127 cells on zone 900 

 turbulent viscosity limited to viscosity ratio of 1.000000e+05 in 254407 cells 
   314  2.3236e+10  7.7223e-02  1.8435e-01  1.8672e-01  2.4203e-02  9.9753e-01  4.9896e-01  0:18:58  186

 absolute pressure limited to 5.000000e+10 in 263114 cells on zone 900 

 turbulent viscosity limited to viscosity ratio of 1.000000e+05 in 254979 cells 
   315  2.3210e+10  7.8479e-02  1.8771e-01  1.8133e-01  2.3026e-02  9.9859e-01  4.9887e-01  0:18:53  185

 absolute pressure limited to 5.000000e+10 in 263098 cells on zone 900 

 turbulent viscosity limited to viscosity ratio of 1.000000e+05 in 254210 cells 
   316  2.3100e+10  7.5206e-02  1.8236e-01  1.7762e-01  2.3167e-02  9.9691e-01  4.9802e-01  0:18:45  184

 absolute pressure limited to 5.000000e+10 in 263107 cells on zone 900 

 turbulent viscosity limited to viscosity ratio of 1.000000e+05 in 254956 cells 
   317  2.3172e+10  7.5230e-02  1.8183e-01  1.7234e-01  2.4621e-02  9.9044e-01  4.9563e-01  0:18:35  183

 absolute pressure limited to 5.000000e+10 in 263100 cells on zone 900 

 turbulent viscosity limited to viscosity ratio of 1.000000e+05 in 254216 cells 
   318  2.2100e+10  7.4448e-02  1.7742e-01  1.6758e-01  2.5194e-02  9.9364e-01  4.9560e-01  0:18:27  182

 absolute pressure limited to 5.000000e+10 in 263106 cells on zone 900 

 turbulent viscosity limited to viscosity ratio of 1.000000e+05 in 255162 cells 
   319  2.1483e+10  7.6624e-02  1.8523e-01  1.7225e-01  2.5452e-02  9.8642e-01  4.9264e-01  0:18:23  181

 absolute pressure limited to 5.000000e+10 in 263114 cells on zone 900 

 turbulent viscosity limited to viscosity ratio of 1.000000e+05 in 254447 cells 

  iter  continuity  x-velocity  y-velocity  z-velocity      energy           k       omega     time/iter
   320  2.2000e+10  7.6969e-02  1.8435e-01  1.7417e-01  2.4287e-02  9.9040e-01  4.9126e-01  0:18:16  180

 absolute pressure limited to 5.000000e+10 in 263105 cells on zone 900 

 turbulent viscosity limited to viscosity ratio of 1.000000e+05 in 255178 cells 
   321  2.2096e+10  7.6897e-02  1.8333e-01  1.6963e-01  2.2345e-02  9.8821e-01  4.8976e-01  0:18:11  179

 absolute pressure limited to 5.000000e+10 in 263107 cells on zone 900 

 turbulent viscosity limited to viscosity ratio of 1.000000e+05 in 254452 cells 
   322  2.1360e+10  7.7123e-02  1.8588e-01  1.6262e-01  2.1509e-02  9.8211e-01  4.8480e-01  0:18:07  178

 absolute pressure limited to 5.000000e+10 in 263106 cells on zone 900 

 turbulent viscosity limited to viscosity ratio of 1.000000e+05 in 255184 cells 
   323  2.0753e+10  7.6442e-02  1.7822e-01  1.6482e-01  2.0592e-02  9.9969e-01  4.9962e-01  0:18:01  177

 absolute pressure limited to 5.000000e+10 in 263103 cells on zone 900 

 turbulent viscosity limited to viscosity ratio of 1.000000e+05 in 254683 cells 
   324  2.0673e+10  7.5206e-02  1.7611e-01  1.7322e-01  2.0521e-02  9.9916e-01  4.9943e-01  0:17:58  176

 absolute pressure limited to 5.000000e+10 in 263098 cells on zone 900 

 turbulent viscosity limited to viscosity ratio of 1.000000e+05 in 255020 cells 
   325  2.0196e+10  7.7786e-02  1.8205e-01  1.8021e-01  2.0241e-02  9.9587e-01  4.9867e-01  0:17:50  175

 absolute pressure limited to 5.000000e+10 in 263124 cells on zone 900 

 turbulent viscosity limited to viscosity ratio of 1.000000e+05 in 254629 cells 
   326  2.0009e+10  7.6110e-02  1.7502e-01  1.8599e-01  2.0866e-02  9.8987e-01  4.9708e-01  0:17:45  174

 absolute pressure limited to 5.000000e+10 in 263115 cells on zone 900 

 turbulent viscosity limited to viscosity ratio of 1.000000e+05 in 254944 cells 
   327  2.0355e+10  7.4211e-02  1.7266e-01  1.9189e-01  2.0846e-02  9.9341e-01  4.9605e-01  0:17:39  173

 absolute pressure limited to 5.000000e+10 in 263099 cells on zone 900 

 turbulent viscosity limited to viscosity ratio of 1.000000e+05 in 254754 cells 
   328  2.0194e+10  7.3157e-02  1.7199e-01  1.8684e-01  2.3209e-02  9.9489e-01  4.9562e-01  0:17:31  172

 absolute pressure limited to 5.000000e+10 in 263113 cells on zone 900 

 turbulent viscosity limited to viscosity ratio of 1.000000e+05 in 254931 cells 
   329  2.0068e+10  7.6185e-02  1.7713e-01  1.8436e-01  2.1320e-02  9.8492e-01  4.9141e-01  0:17:23  171

 absolute pressure limited to 5.000000e+10 in 263087 cells on zone 900 

 turbulent viscosity limited to viscosity ratio of 1.000000e+05 in 254798 cells 
   330  1.9582e+10  7.3271e-02  1.7151e-01  1.8439e-01  2.2163e-02  9.9756e-01  4.9725e-01  0:17:15  170

 absolute pressure limited to 5.000000e+10 in 263110 cells on zone 900 

 turbulent viscosity limited to viscosity ratio of 1.000000e+05 in 254825 cells 

  iter  continuity  x-velocity  y-velocity  z-velocity      energy           k       omega     time/iter
   331  1.9541e+10  7.4696e-02  1.7490e-01  1.8802e-01  2.4011e-02  9.8830e-01  4.9341e-01  0:17:08  169

 absolute pressure limited to 5.000000e+10 in 263107 cells on zone 900 

 turbulent viscosity limited to viscosity ratio of 1.000000e+05 in 254807 cells 
   332  1.9930e+10  7.7204e-02  1.8068e-01  1.8701e-01  2.3732e-02  9.7952e-01  4.8968e-01  0:17:01  168

 absolute pressure limited to 5.000000e+10 in 263112 cells on zone 900 

 turbulent viscosity limited to viscosity ratio of 1.000000e+05 in 254752 cells 
   333  2.0025e+10  7.6704e-02  1.7770e-01  1.8844e-01  2.4067e-02  9.8979e-01  4.9184e-01  0:16:54  167

 absolute pressure limited to 5.000000e+10 in 263102 cells on zone 900 

 turbulent viscosity limited to viscosity ratio of 1.000000e+05 in 254978 cells 
   334  1.9453e+10  7.8829e-02  1.8287e-01  1.8763e-01  2.4856e-02  9.9809e-01  4.9795e-01  0:16:48  166

 absolute pressure limited to 5.000000e+10 in 263107 cells on zone 900 

 turbulent viscosity limited to viscosity ratio of 1.000000e+05 in 254747 cells 
   335  1.9518e+10  7.7941e-02  1.7942e-01  1.8732e-01  2.4124e-02  9.9249e-01  4.9542e-01  0:16:45  165

 absolute pressure limited to 5.000000e+10 in 263110 cells on zone 900 

 turbulent viscosity limited to viscosity ratio of 1.000000e+05 in 254987 cells 
   336  1.9174e+10  7.8741e-02  1.8289e-01  1.7950e-01  2.4775e-02  9.9093e-01  4.9337e-01  0:16:40  164

 absolute pressure limited to 5.000000e+10 in 263093 cells on zone 900 

 turbulent viscosity limited to viscosity ratio of 1.000000e+05 in 255016 cells 
   337  1.8292e+10  7.6802e-02  1.8125e-01  1.7479e-01  2.3981e-02  9.8879e-01  4.9157e-01  0:16:33  163

 absolute pressure limited to 5.000000e+10 in 263097 cells on zone 900 

 turbulent viscosity limited to viscosity ratio of 1.000000e+05 in 255166 cells 
   338  1.7928e+10  7.8475e-02  1.8216e-01  1.7456e-01  2.3877e-02  9.8785e-01  4.9014e-01  0:16:30  162

 absolute pressure limited to 5.000000e+10 in 263073 cells on zone 900 

 turbulent viscosity limited to viscosity ratio of 1.000000e+05 in 254752 cells 
   339  1.7399e+10  8.1161e-02  1.8528e-01  1.7153e-01  2.5982e-02  9.9748e-01  4.9713e-01  0:16:20  161

 absolute pressure limited to 5.000000e+10 in 263086 cells on zone 900 

 turbulent viscosity limited to viscosity ratio of 1.000000e+05 in 254794 cells 
   340  1.6912e+10  7.8418e-02  1.8311e-01  1.7131e-01  2.5926e-02  9.9754e-01  4.9755e-01  0:16:16  160

 absolute pressure limited to 5.000000e+10 in 263111 cells on zone 900 

 turbulent viscosity limited to viscosity ratio of 1.000000e+05 in 254402 cells 
   341  1.6727e+10  7.9317e-02  1.8621e-01  1.6485e-01  2.6144e-02  9.9294e-01  4.9587e-01  0:16:11  159

 absolute pressure limited to 5.000000e+10 in 263062 cells on zone 900 

 turbulent viscosity limited to viscosity ratio of 1.000000e+05 in 254698 cells 

  iter  continuity  x-velocity  y-velocity  z-velocity      energy           k       omega     time/iter
   342  1.5123e+10  8.2013e-02  1.8995e-01  1.6173e-01  2.7561e-02  9.9993e-01  4.9992e-01  0:16:05  158

 absolute pressure limited to 5.000000e+10 in 263083 cells on zone 900 

 turbulent viscosity limited to viscosity ratio of 1.000000e+05 in 254417 cells 
   343  1.4605e+10  8.3080e-02  1.9167e-01  1.6994e-01  2.9094e-02  9.9965e-01  4.9982e-01  0:15:59  157

 absolute pressure limited to 5.000000e+10 in 263079 cells on zone 900 

 turbulent viscosity limited to viscosity ratio of 1.000000e+05 in 254328 cells 
   344  1.4737e+10  8.8049e-02  2.0184e-01  1.7143e-01  2.7396e-02  9.9824e-01  4.9963e-01  0:15:55  156

 absolute pressure limited to 5.000000e+10 in 263075 cells on zone 900 

 turbulent viscosity limited to viscosity ratio of 1.000000e+05 in 253979 cells 
   345  1.4271e+10  8.8014e-02  1.9998e-01  1.6563e-01  2.7371e-02  9.9744e-01  4.9923e-01  0:15:50  155

 absolute pressure limited to 5.000000e+10 in 263075 cells on zone 900 

 turbulent viscosity limited to viscosity ratio of 1.000000e+05 in 254096 cells 
   346  1.3919e+10  8.9516e-02  2.0227e-01  1.6122e-01  2.8676e-02  9.9525e-01  4.9842e-01  0:15:46  154

 absolute pressure limited to 5.000000e+10 in 263067 cells on zone 900 

 turbulent viscosity limited to viscosity ratio of 1.000000e+05 in 253911 cells 
   347  1.3198e+10  8.8668e-02  1.9796e-01  1.5817e-01  2.9885e-02  9.9587e-01  4.9750e-01  0:15:50  153

 absolute pressure limited to 5.000000e+10 in 263072 cells on zone 900 

 turbulent viscosity limited to viscosity ratio of 1.000000e+05 in 254036 cells 
   348  1.2561e+10  8.9697e-02  2.0340e-01  1.6143e-01  3.1226e-02  9.9268e-01  4.9700e-01  0:15:40  152

 absolute pressure limited to 5.000000e+10 in 263106 cells on zone 900 

 turbulent viscosity limited to viscosity ratio of 1.000000e+05 in 253564 cells 
   349  1.2657e+10  9.0081e-02  2.0696e-01  1.7238e-01  3.2709e-02  9.9779e-01  4.9754e-01  0:15:31  151

 absolute pressure limited to 5.000000e+10 in 263060 cells on zone 900 

 turbulent viscosity limited to viscosity ratio of 1.000000e+05 in 253753 cells 
   350  1.2588e+10  8.9768e-02  2.0916e-01  1.7230e-01  3.2502e-02  9.9762e-01  4.9742e-01  0:15:24  150

 absolute pressure limited to 5.000000e+10 in 263053 cells on zone 900 

 turbulent viscosity limited to viscosity ratio of 1.000000e+05 in 253363 cells 
   351  1.2079e+10  9.1610e-02  2.0897e-01  1.6380e-01  3.6044e-02  9.9155e-01  4.9500e-01  0:15:18  149

 absolute pressure limited to 5.000000e+10 in 263079 cells on zone 900 

 turbulent viscosity limited to viscosity ratio of 1.000000e+05 in 253817 cells 
   352  1.2478e+10  9.5334e-02  2.1187e-01  1.6319e-01  3.3935e-02  9.9704e-01  4.9717e-01  0:15:13  148
 temperature limited to 5.000000e+03 in 18 cells on zone 900 in domain 1
 
 absolute pressure limited to 5.000000e+10 in 263080 cells on zone 900 

 turbulent viscosity limited to viscosity ratio of 1.000000e+05 in 253262 cells 

  iter  continuity  x-velocity  y-velocity  z-velocity      energy           k       omega     time/iter
   353  1.2458e+10  9.0656e-02  2.0715e-01  1.5889e-01  3.1822e-02  9.9240e-01  4.9432e-01  0:15:05  147
 temperature limited to 5.000000e+03 in 56 cells on zone 900 in domain 1
 
 absolute pressure limited to 5.000000e+10 in 263084 cells on zone 900 

 turbulent viscosity limited to viscosity ratio of 1.000000e+05 in 253611 cells 
   354  1.1899e+10  8.8826e-02  2.0303e-01  1.5629e-01  3.2444e-02  9.9497e-01  4.9453e-01  0:14:58  146
 temperature limited to 5.000000e+03 in 98 cells on zone 900 in domain 1
 
 absolute pressure limited to 5.000000e+10 in 263084 cells on zone 900 

 turbulent viscosity limited to viscosity ratio of 1.000000e+05 in 253292 cells 
   355  1.1667e+10  9.0035e-02  1.9833e-01  1.5460e-01  3.1057e-02  9.8917e-01  4.9300e-01  0:14:51  145
 temperature limited to 5.000000e+03 in 1554 cells on zone 900 in domain 1
 
 absolute pressure limited to 5.000000e+10 in 263078 cells on zone 900 

 turbulent viscosity limited to viscosity ratio of 1.000000e+05 in 253571 cells 
   356  1.1251e+10  9.1521e-02  2.0442e-01  1.6002e-01  3.1695e-02  9.8990e-01  4.9127e-01  0:14:43  144
 temperature limited to 5.000000e+03 in 1214 cells on zone 900 in domain 1
 
 absolute pressure limited to 5.000000e+10 in 263088 cells on zone 900 

 turbulent viscosity limited to viscosity ratio of 1.000000e+05 in 253262 cells 
   357  1.1241e+10  8.9867e-02  1.9758e-01  1.6493e-01  3.1868e-02  9.9391e-01  4.9333e-01  0:14:35  143
 temperature limited to 5.000000e+03 in 2870 cells on zone 900 in domain 1
  temperature limited to 5.000000e+03 on 13 faces

 absolute pressure limited to 5.000000e+10 in 263090 cells on zone 900 

 turbulent viscosity limited to viscosity ratio of 1.000000e+05 in 253391 cells 
   358  1.1223e+10  8.9534e-02  1.9998e-01  1.6539e-01  3.1441e-02  9.9196e-01  4.9398e-01  0:14:28  142
 temperature limited to 5.000000e+03 in 474 cells on zone 900 in domain 1
  temperature limited to 5.000000e+03 on 19 faces

 absolute pressure limited to 5.000000e+10 in 263100 cells on zone 900 

 turbulent viscosity limited to viscosity ratio of 1.000000e+05 in 253354 cells 
   359  1.0985e+10  9.1715e-02  2.0344e-01  1.7730e-01  3.5027e-02  9.9279e-01  4.9360e-01  0:14:23  141
 temperature limited to 5.000000e+03 in 3517 cells on zone 900 in domain 1
  temperature limited to 5.000000e+03 on 21 faces

 absolute pressure limited to 5.000000e+10 in 263130 cells on zone 900 

 turbulent viscosity limited to viscosity ratio of 1.000000e+05 in 253487 cells 
   360  1.1696e+10  9.4331e-02  2.0449e-01  1.8174e-01  3.5145e-02  9.9147e-01  4.9204e-01  0:14:15  140
 temperature limited to 5.000000e+03 in 431 cells on zone 900 in domain 1
  temperature limited to 5.000000e+03 on 19 faces

 absolute pressure limited to 5.000000e+10 in 263098 cells on zone 900 

 turbulent viscosity limited to viscosity ratio of 1.000000e+05 in 253445 cells 
   361  1.1941e+10  9.0461e-02  2.0306e-01  1.8594e-01  3.2068e-02  9.9766e-01  4.9735e-01  0:14:06  139
 temperature limited to 5.000000e+03 in 3698 cells on zone 900 in domain 1
  temperature limited to 5.000000e+03 on 23 faces

 absolute pressure limited to 5.000000e+10 in 263093 cells on zone 900 

 turbulent viscosity limited to viscosity ratio of 1.000000e+05 in 253589 cells 
   362  1.1770e+10  8.6343e-02  1.8969e-01  1.8813e-01  3.5140e-02  9.9633e-01  4.9698e-01  0:13:59  138
 temperature limited to 5.000000e+03 in 4136 cells on zone 900 in domain 1
  temperature limited to 5.000000e+03 on 77 faces

 absolute pressure limited to 5.000000e+10 in 263152 cells on zone 900 

 turbulent viscosity limited to viscosity ratio of 1.000000e+05 in 253351 cells 
   363  1.2748e+10  9.3536e-02  2.0593e-01  1.9371e-01  3.4197e-02  9.9114e-01  4.9527e-01  0:13:56  137
 temperature limited to 5.000000e+03 in 4083 cells on zone 900 in domain 1
  temperature limited to 5.000000e+03 on 333 faces

 absolute pressure limited to 5.000000e+10 in 263121 cells on zone 900 

 turbulent viscosity limited to viscosity ratio of 1.000000e+05 in 253542 cells 

  iter  continuity  x-velocity  y-velocity  z-velocity      energy           k       omega     time/iter
   364  1.3857e+10  9.4440e-02  2.0903e-01  2.0262e-01  2.9163e-02  9.9062e-01  4.9405e-01  0:13:49  136
 temperature limited to 5.000000e+03 in 20 cells on zone 900 in domain 1
  temperature limited to 5.000000e+03 on 280 faces

 absolute pressure limited to 5.000000e+10 in 263122 cells on zone 900 

 turbulent viscosity limited to viscosity ratio of 1.000000e+05 in 253447 cells 
   365  1.3740e+10  8.5199e-02  2.0095e-01  2.0150e-01  2.8490e-02  9.9648e-01  4.9705e-01  0:13:45  135
 temperature limited to 5.000000e+03 in 4159 cells on zone 900 in domain 1
 
 absolute pressure limited to 5.000000e+10 in 263124 cells on zone 900 

 turbulent viscosity limited to viscosity ratio of 1.000000e+05 in 253908 cells 
   366  1.4563e+10  8.3449e-02  1.8947e-01  1.9821e-01  3.0537e-02  9.8799e-01  4.9383e-01  0:13:40  134

 absolute pressure limited to 5.000000e+10 in 263141 cells on zone 900 

 turbulent viscosity limited to viscosity ratio of 1.000000e+05 in 254060 cells 
   367  1.5475e+10  8.7035e-02  1.9776e-01  1.9524e-01  2.9955e-02  9.9245e-01  4.9455e-01  0:13:36  133

 absolute pressure limited to 5.000000e+10 in 263111 cells on zone 900 

 turbulent viscosity limited to viscosity ratio of 1.000000e+05 in 253985 cells 
   368  1.5922e+10  8.2882e-02  1.8785e-01  2.0157e-01  3.2556e-02  9.8350e-01  4.9029e-01  0:13:30  132

 absolute pressure limited to 5.000000e+10 in 263127 cells on zone 900 

 turbulent viscosity limited to viscosity ratio of 1.000000e+05 in 254104 cells 
   369  1.5944e+10  8.5201e-02  1.8822e-01  2.0877e-01  2.9516e-02  9.8294e-01  4.8780e-01  0:13:23  131

 absolute pressure limited to 5.000000e+10 in 263133 cells on zone 900 

 turbulent viscosity limited to viscosity ratio of 1.000000e+05 in 254198 cells 
   370  1.6812e+10  8.0950e-02  1.8342e-01  2.1246e-01  3.0297e-02  9.7437e-01  4.8273e-01  0:13:16  130

 absolute pressure limited to 5.000000e+10 in 263139 cells on zone 900 

 turbulent viscosity limited to viscosity ratio of 1.000000e+05 in 254157 cells 
   371  1.8094e+10  8.1742e-02  1.9033e-01  2.2084e-01  3.0068e-02  9.9735e-01  4.9744e-01  0:13:10  129

 absolute pressure limited to 5.000000e+10 in 263108 cells on zone 900 

 turbulent viscosity limited to viscosity ratio of 1.000000e+05 in 254520 cells 
   372  1.9059e+10  8.2476e-02  1.8673e-01  2.1865e-01  3.2570e-02  9.9654e-01  4.9727e-01  0:13:05  128

 absolute pressure limited to 5.000000e+10 in 263115 cells on zone 900 

 turbulent viscosity limited to viscosity ratio of 1.000000e+05 in 253808 cells 
   373  1.9623e+10  8.2116e-02  1.9131e-01  2.2162e-01  3.0838e-02  9.9530e-01  4.9664e-01  0:12:58  127

 absolute pressure limited to 5.000000e+10 in 263130 cells on zone 900 

 turbulent viscosity limited to viscosity ratio of 1.000000e+05 in 254408 cells 
   374  2.1851e+10  8.0791e-02  1.8693e-01  2.2323e-01  3.2227e-02  9.9462e-01  4.9665e-01  0:12:51  126

 absolute pressure limited to 5.000000e+10 in 263129 cells on zone 900 

 turbulent viscosity limited to viscosity ratio of 1.000000e+05 in 253815 cells 

  iter  continuity  x-velocity  y-velocity  z-velocity      energy           k       omega     time/iter
   375  2.3812e+10  8.0742e-02  1.8872e-01  2.1383e-01  3.2639e-02  9.9556e-01  4.9658e-01  0:12:43  125

 absolute pressure limited to 5.000000e+10 in 263099 cells on zone 900 

 turbulent viscosity limited to viscosity ratio of 1.000000e+05 in 254325 cells 
   376  2.3754e+10  7.9729e-02  1.8723e-01  2.0609e-01  3.2481e-02  9.9942e-01  4.9938e-01  0:12:39  124

 absolute pressure limited to 5.000000e+10 in 263140 cells on zone 900 

 turbulent viscosity limited to viscosity ratio of 1.000000e+05 in 254358 cells 
   377  2.5679e+10  8.0410e-02  1.8906e-01  2.0472e-01  3.3224e-02  9.9786e-01  4.9881e-01  0:12:34  123

 absolute pressure limited to 5.000000e+10 in 263123 cells on zone 900 

 turbulent viscosity limited to viscosity ratio of 1.000000e+05 in 254510 cells 
   378  2.7712e+10  8.1593e-02  1.9077e-01  2.0018e-01  3.3060e-02  9.9301e-01  4.9741e-01  0:12:30  122

 absolute pressure limited to 5.000000e+10 in 263095 cells on zone 900 

 turbulent viscosity limited to viscosity ratio of 1.000000e+05 in 254208 cells 
   379  2.7419e+10  7.7397e-02  1.8400e-01  2.0303e-01  3.8996e-02  9.9620e-01  4.9729e-01  0:12:23  121

 absolute pressure limited to 5.000000e+10 in 263102 cells on zone 900 

 turbulent viscosity limited to viscosity ratio of 1.000000e+05 in 254724 cells 
   380  2.8910e+10  7.6042e-02  1.7729e-01  1.9335e-01  3.6139e-02  9.9772e-01  4.9772e-01  0:12:19  120

 absolute pressure limited to 5.000000e+10 in 263084 cells on zone 900 

 turbulent viscosity limited to viscosity ratio of 1.000000e+05 in 254325 cells 
   381  3.0057e+10  7.5070e-02  1.7311e-01  1.9161e-01  3.8002e-02  9.9954e-01  4.9949e-01  0:12:11  119

 absolute pressure limited to 5.000000e+10 in 263101 cells on zone 900 

 turbulent viscosity limited to viscosity ratio of 1.000000e+05 in 254768 cells 
   382  3.1462e+10  7.4281e-02  1.7539e-01  1.9090e-01  3.5808e-02  9.9736e-01  4.9867e-01  0:12:03  118

 absolute pressure limited to 5.000000e+10 in 263078 cells on zone 900 

 turbulent viscosity limited to viscosity ratio of 1.000000e+05 in 254030 cells 
   383  3.2353e+10  7.4589e-02  1.7862e-01  1.8080e-01  3.8983e-02  9.8819e-01  4.9719e-01  0:11:55  117

 absolute pressure limited to 5.000000e+10 in 263065 cells on zone 900 

 turbulent viscosity limited to viscosity ratio of 1.000000e+05 in 254728 cells 
   384  3.1892e+10  7.7267e-02  1.7946e-01  1.7788e-01  3.7460e-02  9.9785e-01  4.9808e-01  0:11:47  116

 absolute pressure limited to 5.000000e+10 in 263077 cells on zone 900 

 turbulent viscosity limited to viscosity ratio of 1.000000e+05 in 253962 cells 
   385  3.2423e+10  7.8107e-02  1.8264e-01  1.7304e-01  3.5782e-02  9.9669e-01  4.9723e-01  0:11:41  115

 absolute pressure limited to 5.000000e+10 in 263079 cells on zone 900 

 turbulent viscosity limited to viscosity ratio of 1.000000e+05 in 254600 cells 

  iter  continuity  x-velocity  y-velocity  z-velocity      energy           k       omega     time/iter
   386  3.2958e+10  7.8434e-02  1.8706e-01  1.6758e-01  3.6859e-02  9.9270e-01  4.9513e-01  0:11:34  114

 absolute pressure limited to 5.000000e+10 in 263090 cells on zone 900 

 turbulent viscosity limited to viscosity ratio of 1.000000e+05 in 254276 cells 
   387  3.4223e+10  7.6074e-02  1.8482e-01  1.6711e-01  3.9481e-02  9.9291e-01  4.9408e-01  0:11:27  113

 absolute pressure limited to 5.000000e+10 in 263065 cells on zone 900 

 turbulent viscosity limited to viscosity ratio of 1.000000e+05 in 254313 cells 
   388  3.4178e+10  7.9770e-02  1.8721e-01  1.6351e-01  4.0517e-02  9.9795e-01  4.9796e-01  0:11:21  112

 absolute pressure limited to 5.000000e+10 in 263076 cells on zone 900 

 turbulent viscosity limited to viscosity ratio of 1.000000e+05 in 254062 cells 
   389  3.4403e+10  8.1362e-02  1.9004e-01  1.5698e-01  3.7153e-02  9.9162e-01  4.9572e-01  0:11:17  111

 absolute pressure limited to 5.000000e+10 in 263061 cells on zone 900 

 turbulent viscosity limited to viscosity ratio of 1.000000e+05 in 254340 cells 
   390  3.6709e+10  7.6151e-02  1.7909e-01  1.5238e-01  3.5512e-02  9.9994e-01  4.9994e-01  0:11:14  110

 absolute pressure limited to 5.000000e+10 in 263091 cells on zone 900 

 turbulent viscosity limited to viscosity ratio of 1.000000e+05 in 254142 cells 
   391  3.8827e+10  7.4983e-02  1.8299e-01  1.6056e-01  3.5597e-02  9.9963e-01  4.9984e-01  0:11:09  109

 absolute pressure limited to 5.000000e+10 in 263079 cells on zone 900 

 turbulent viscosity limited to viscosity ratio of 1.000000e+05 in 254207 cells 
   392  4.0697e+10  7.6526e-02  1.8685e-01  1.5713e-01  3.6498e-02  9.9837e-01  4.9964e-01  0:11:03  108
 temperature limited to 5.000000e+03 in 69 cells on zone 900 in domain 1
 
 absolute pressure limited to 5.000000e+10 in 263083 cells on zone 900 

 turbulent viscosity limited to viscosity ratio of 1.000000e+05 in 254104 cells 
   393  4.2853e+10  7.8267e-02  1.9165e-01  1.6314e-01  3.5264e-02  9.9385e-01  4.9913e-01  0:10:56  107
 temperature limited to 5.000000e+03 in 171 cells on zone 900 in domain 1
 
 absolute pressure limited to 5.000000e+10 in 263071 cells on zone 900 

 turbulent viscosity limited to viscosity ratio of 1.000000e+05 in 254203 cells 
   394  4.6376e+10  7.8925e-02  1.8938e-01  1.6241e-01  3.5314e-02  9.9450e-01  4.9829e-01  0:10:51  106
 temperature limited to 5.000000e+03 in 213 cells on zone 900 in domain 1
 
 absolute pressure limited to 5.000000e+10 in 263072 cells on zone 900 

 turbulent viscosity limited to viscosity ratio of 1.000000e+05 in 254256 cells 
   395  4.9149e+10  7.5628e-02  1.8580e-01  1.6015e-01  3.6655e-02  9.9377e-01  4.9678e-01  0:10:43  105
 temperature limited to 5.000000e+03 in 3 cells on zone 900 in domain 1
 
 absolute pressure limited to 5.000000e+10 in 263051 cells on zone 900 

 turbulent viscosity limited to viscosity ratio of 1.000000e+05 in 254278 cells 
   396  5.1508e+10  7.7431e-02  1.8611e-01  1.6100e-01  4.0426e-02  9.8757e-01  4.9413e-01  0:10:37  104
 temperature limited to 5.000000e+03 in 526 cells on zone 900 in domain 1
 
 absolute pressure limited to 5.000000e+10 in 263096 cells on zone 900 

 turbulent viscosity limited to viscosity ratio of 1.000000e+05 in 254237 cells 

  iter  continuity  x-velocity  y-velocity  z-velocity      energy           k       omega     time/iter
   397  5.6975e+10  7.5719e-02  1.8576e-01  1.6438e-01  3.9103e-02  9.9769e-01  4.9726e-01  0:10:31  103
 temperature limited to 5.000000e+03 in 1832 cells on zone 900 in domain 1
 
 absolute pressure limited to 5.000000e+10 in 263069 cells on zone 900 

 turbulent viscosity limited to viscosity ratio of 1.000000e+05 in 254384 cells 
   398  6.1592e+10  7.3508e-02  1.8454e-01  1.6643e-01  3.9588e-02  9.9893e-01  4.9842e-01  0:10:25  102

 absolute pressure limited to 5.000000e+10 in 263087 cells on zone 900 

 turbulent viscosity limited to viscosity ratio of 1.000000e+05 in 254371 cells 
   399  6.4365e+10  7.5260e-02  1.9034e-01  1.6748e-01  4.1471e-02  9.9603e-01  4.9766e-01  0:10:18  101

 absolute pressure limited to 5.000000e+10 in 263077 cells on zone 900 

 turbulent viscosity limited to viscosity ratio of 1.000000e+05 in 254493 cells 
   400  6.8456e+10  7.5245e-02  1.8853e-01  1.6326e-01  4.1856e-02  9.9948e-01  4.9949e-01  0:10:11  100

 absolute pressure limited to 5.000000e+10 in 263065 cells on zone 900 

 turbulent viscosity limited to viscosity ratio of 1.000000e+05 in 254275 cells 
   401  7.3221e+10  7.3544e-02  1.8544e-01  1.5509e-01  4.2294e-02  9.9737e-01  4.9866e-01  0:10:04   99

 absolute pressure limited to 5.000000e+10 in 263037 cells on zone 900 

 turbulent viscosity limited to viscosity ratio of 1.000000e+05 in 254356 cells 
   402  7.6086e+10  7.1240e-02  1.8047e-01  1.5218e-01  4.1848e-02  9.9822e-01  4.9849e-01  0:09:58   98

 absolute pressure limited to 5.000000e+10 in 263040 cells on zone 900 

 turbulent viscosity limited to viscosity ratio of 1.000000e+05 in 254275 cells 
   403  7.9155e+10  6.9163e-02  1.7646e-01  1.5265e-01  4.3034e-02  9.9780e-01  4.9839e-01  0:09:54   97

 absolute pressure limited to 5.000000e+10 in 263039 cells on zone 900 

 turbulent viscosity limited to viscosity ratio of 1.000000e+05 in 254314 cells 
   404  8.4783e+10  6.8619e-02  1.7338e-01  1.5725e-01  4.2367e-02  9.8978e-01  4.9652e-01  0:09:48   96

 absolute pressure limited to 5.000000e+10 in 263038 cells on zone 900 

 turbulent viscosity limited to viscosity ratio of 1.000000e+05 in 254258 cells 
   405  8.7532e+10  7.1891e-02  1.8120e-01  1.4866e-01  4.1509e-02  9.8386e-01  4.9326e-01  0:09:43   95

 absolute pressure limited to 5.000000e+10 in 263027 cells on zone 900 

 turbulent viscosity limited to viscosity ratio of 1.000000e+05 in 254343 cells 
   406  9.0914e+10  7.1955e-02  1.8348e-01  1.5256e-01  4.0695e-02  9.8567e-01  4.8961e-01  0:09:37   94

 absolute pressure limited to 5.000000e+10 in 263021 cells on zone 900 

 turbulent viscosity limited to viscosity ratio of 1.000000e+05 in 254141 cells 
   407  9.6232e+10  7.1097e-02  1.8272e-01  1.4972e-01  3.9669e-02  9.9862e-01  4.9826e-01  0:09:30   93

 absolute pressure limited to 5.000000e+10 in 263016 cells on zone 900 

 turbulent viscosity limited to viscosity ratio of 1.000000e+05 in 254157 cells 

  iter  continuity  x-velocity  y-velocity  z-velocity      energy           k       omega     time/iter
   408  9.6792e+10  7.1815e-02  1.8362e-01  1.4218e-01  4.0956e-02  9.9541e-01  4.9642e-01  0:09:23   92

 absolute pressure limited to 5.000000e+10 in 263017 cells on zone 900 

 turbulent viscosity limited to viscosity ratio of 1.000000e+05 in 254048 cells 
   409  1.0112e+11  6.9563e-02  1.7410e-01  1.4186e-01  4.1962e-02  9.9369e-01  4.9606e-01  0:09:16   91

 absolute pressure limited to 5.000000e+10 in 262988 cells on zone 900 

 turbulent viscosity limited to viscosity ratio of 1.000000e+05 in 254197 cells 
   410  1.0510e+11  7.1981e-02  1.7947e-01  1.4439e-01  4.4193e-02  9.9155e-01  4.9467e-01  0:09:09   90

 absolute pressure limited to 5.000000e+10 in 262986 cells on zone 900 

 turbulent viscosity limited to viscosity ratio of 1.000000e+05 in 254034 cells 
   411  1.0358e+11  7.4382e-02  1.8622e-01  1.3552e-01  4.7853e-02  9.9620e-01  4.9645e-01  0:09:06   89

 absolute pressure limited to 5.000000e+10 in 262973 cells on zone 900 

 turbulent viscosity limited to viscosity ratio of 1.000000e+05 in 254230 cells 
   412  1.0438e+11  7.4148e-02  1.8888e-01  1.3945e-01  4.5770e-02  9.9205e-01  4.9415e-01  0:09:00   88

 absolute pressure limited to 5.000000e+10 in 263000 cells on zone 900 

 turbulent viscosity limited to viscosity ratio of 1.000000e+05 in 254038 cells 
   413  1.0862e+11  7.6403e-02  1.9332e-01  1.3815e-01  4.3006e-02  9.9298e-01  4.9363e-01  0:08:52   87

 absolute pressure limited to 5.000000e+10 in 262989 cells on zone 900 

 turbulent viscosity limited to viscosity ratio of 1.000000e+05 in 254247 cells 
   414  1.0719e+11  7.7380e-02  1.9540e-01  1.3776e-01  4.1374e-02  9.9298e-01  4.9387e-01  0:08:45   86

 absolute pressure limited to 5.000000e+10 in 262959 cells on zone 900 

 turbulent viscosity limited to viscosity ratio of 1.000000e+05 in 254167 cells 
   415  1.1026e+11  7.6260e-02  1.9420e-01  1.3563e-01  4.2048e-02  9.9368e-01  4.9398e-01  0:08:37   85

 absolute pressure limited to 5.000000e+10 in 262965 cells on zone 900 

 turbulent viscosity limited to viscosity ratio of 1.000000e+05 in 254248 cells 
   416  1.1616e+11  7.3184e-02  1.8686e-01  1.2667e-01  3.6859e-02  9.8034e-01  4.8778e-01  0:08:31   84

 absolute pressure limited to 5.000000e+10 in 262956 cells on zone 900 

 turbulent viscosity limited to viscosity ratio of 1.000000e+05 in 254186 cells 
   417  1.0368e+11  7.0269e-02  1.7898e-01  1.1829e-01  3.9542e-02  9.8654e-01  4.8764e-01  0:08:27   83

 absolute pressure limited to 5.000000e+10 in 262951 cells on zone 900 

 turbulent viscosity limited to viscosity ratio of 1.000000e+05 in 254233 cells 
   418  1.0259e+11  6.8823e-02  1.7242e-01  1.1580e-01  3.9602e-02  9.8801e-01  4.8722e-01  0:08:22   82

 absolute pressure limited to 5.000000e+10 in 262928 cells on zone 900 

 turbulent viscosity limited to viscosity ratio of 1.000000e+05 in 254060 cells 

  iter  continuity  x-velocity  y-velocity  z-velocity      energy           k       omega     time/iter
   419  1.0419e+11  7.0316e-02  1.7549e-01  1.2002e-01  3.9666e-02  9.9179e-01  4.8995e-01  0:08:16   81

 absolute pressure limited to 5.000000e+10 in 262941 cells on zone 900 

 turbulent viscosity limited to viscosity ratio of 1.000000e+05 in 254288 cells 
   420  9.4455e+10  7.3014e-02  1.8258e-01  1.1228e-01  4.0375e-02  9.8573e-01  4.8763e-01  0:08:10   80

 absolute pressure limited to 5.000000e+10 in 262966 cells on zone 900 

 turbulent viscosity limited to viscosity ratio of 1.000000e+05 in 254342 cells 
   421  9.3994e+10  7.4833e-02  1.8658e-01  1.0525e-01  4.0487e-02  9.9596e-01  4.9383e-01  0:08:04   79

 absolute pressure limited to 5.000000e+10 in 262942 cells on zone 900 

 turbulent viscosity limited to viscosity ratio of 1.000000e+05 in 254471 cells 
   422  9.1666e+10  7.5739e-02  1.9073e-01  1.1314e-01  3.7398e-02  9.9829e-01  4.9808e-01  0:07:58   78

 absolute pressure limited to 5.000000e+10 in 262942 cells on zone 900 

 turbulent viscosity limited to viscosity ratio of 1.000000e+05 in 254401 cells 
   423  8.4728e+10  7.5130e-02  1.8901e-01  1.1203e-01  4.3300e-02  9.9410e-01  4.9615e-01  0:07:51   77

 absolute pressure limited to 5.000000e+10 in 262972 cells on zone 900 

 turbulent viscosity limited to viscosity ratio of 1.000000e+05 in 254633 cells 
   424  8.1457e+10  7.7321e-02  1.9248e-01  1.1421e-01  4.0042e-02  9.8254e-01  4.9267e-01  0:07:45   76

 absolute pressure limited to 5.000000e+10 in 262980 cells on zone 900 

 turbulent viscosity limited to viscosity ratio of 1.000000e+05 in 254469 cells 
   425  8.1403e+10  7.8035e-02  1.9558e-01  1.3059e-01  3.6192e-02  9.9103e-01  4.9269e-01  0:07:39   75

 absolute pressure limited to 5.000000e+10 in 262970 cells on zone 900 

 turbulent viscosity limited to viscosity ratio of 1.000000e+05 in 254569 cells 
   426  7.8675e+10  7.8706e-02  1.9592e-01  1.2153e-01  3.3055e-02  9.7434e-01  4.8351e-01  0:07:32   74

 absolute pressure limited to 5.000000e+10 in 262969 cells on zone 900 

 turbulent viscosity limited to viscosity ratio of 1.000000e+05 in 254513 cells 
   427  7.5639e+10  7.5284e-02  1.8663e-01  1.1948e-01  3.3582e-02  9.8559e-01  4.8478e-01  0:07:24   73

 absolute pressure limited to 5.000000e+10 in 262972 cells on zone 900 

 turbulent viscosity limited to viscosity ratio of 1.000000e+05 in 254440 cells 
   428  7.3647e+10  7.7875e-02  1.9295e-01  1.1370e-01  3.2377e-02  9.8978e-01  4.8817e-01  0:07:17   72

 absolute pressure limited to 5.000000e+10 in 262975 cells on zone 900 

 turbulent viscosity limited to viscosity ratio of 1.000000e+05 in 254244 cells 
   429  6.6551e+10  7.9099e-02  1.9603e-01  1.2413e-01  3.4244e-02  9.9462e-01  4.9326e-01  0:07:12   71

 absolute pressure limited to 5.000000e+10 in 263015 cells on zone 900 

 turbulent viscosity limited to viscosity ratio of 1.000000e+05 in 254500 cells 

  iter  continuity  x-velocity  y-velocity  z-velocity      energy           k       omega     time/iter
   430  6.5669e+10  7.7525e-02  1.9227e-01  1.2094e-01  3.4031e-02  9.9068e-01  4.9035e-01  0:07:06   70

 absolute pressure limited to 5.000000e+10 in 262994 cells on zone 900 

 turbulent viscosity limited to viscosity ratio of 1.000000e+05 in 254167 cells 
   431  6.3128e+10  7.4473e-02  1.8518e-01  1.2076e-01  3.3116e-02  9.9735e-01  4.9759e-01  0:07:00   69

 absolute pressure limited to 5.000000e+10 in 262980 cells on zone 900 

 turbulent viscosity limited to viscosity ratio of 1.000000e+05 in 254448 cells 
   432  5.7837e+10  7.7593e-02  1.9211e-01  1.2359e-01  3.2938e-02  9.9919e-01  4.9922e-01  0:06:56   68

 absolute pressure limited to 5.000000e+10 in 263023 cells on zone 900 

 turbulent viscosity limited to viscosity ratio of 1.000000e+05 in 254406 cells 
   433  5.8777e+10  7.5862e-02  1.8819e-01  1.1773e-01  3.2880e-02  9.9599e-01  4.9803e-01  0:06:51   67

 absolute pressure limited to 5.000000e+10 in 263023 cells on zone 900 

 turbulent viscosity limited to viscosity ratio of 1.000000e+05 in 254276 cells 
   434  5.6481e+10  7.6619e-02  1.9164e-01  1.1975e-01  3.2133e-02  9.8819e-01  4.9617e-01  0:06:45   66

 absolute pressure limited to 5.000000e+10 in 263002 cells on zone 900 

 turbulent viscosity limited to viscosity ratio of 1.000000e+05 in 253908 cells 
   435  5.2973e+10  7.5449e-02  1.9028e-01  1.1824e-01  3.0546e-02  9.9920e-01  4.9924e-01  0:06:39   65

 absolute pressure limited to 5.000000e+10 in 263035 cells on zone 900 

 turbulent viscosity limited to viscosity ratio of 1.000000e+05 in 254018 cells 
   436  5.2615e+10  7.1520e-02  1.7916e-01  1.0964e-01  3.0257e-02  9.9794e-01  4.9862e-01  0:06:33   64
 temperature limited to 5.000000e+03 in 9 cells on zone 900 in domain 1
 
 absolute pressure limited to 5.000000e+10 in 263022 cells on zone 900 

 turbulent viscosity limited to viscosity ratio of 1.000000e+05 in 253552 cells 
   437  4.9157e+10  7.1632e-02  1.8000e-01  1.0633e-01  3.0874e-02  9.9283e-01  4.9694e-01  0:06:26   63

 absolute pressure limited to 5.000000e+10 in 263019 cells on zone 900 

 turbulent viscosity limited to viscosity ratio of 1.000000e+05 in 253954 cells 
   438  4.4372e+10  7.0767e-02  1.7613e-01  1.0364e-01  3.2298e-02  9.7844e-01  4.9363e-01  0:06:19   62
 temperature limited to 5.000000e+03 in 3 cells on zone 900 in domain 1
 
 absolute pressure limited to 5.000000e+10 in 263030 cells on zone 900 

 turbulent viscosity limited to viscosity ratio of 1.000000e+05 in 253621 cells 
   439  4.2827e+10  7.4903e-02  1.8499e-01  1.0916e-01  3.1864e-02  9.6901e-01  4.9087e-01  0:06:12   61

 absolute pressure limited to 5.000000e+10 in 263027 cells on zone 900 

 turbulent viscosity limited to viscosity ratio of 1.000000e+05 in 254155 cells 
   440  4.1129e+10  7.8037e-02  1.9014e-01  1.1393e-01  3.3611e-02  9.9846e-01  4.9710e-01  0:06:05   60
 temperature limited to 5.000000e+03 in 4 cells on zone 900 in domain 1
 
 absolute pressure limited to 5.000000e+10 in 263042 cells on zone 900 

 turbulent viscosity limited to viscosity ratio of 1.000000e+05 in 253764 cells 

  iter  continuity  x-velocity  y-velocity  z-velocity      energy           k       omega     time/iter
   441  3.8798e+10  7.7474e-02  1.9182e-01  1.2418e-01  3.1376e-02  9.9710e-01  4.9638e-01  0:06:01   59
 temperature limited to 5.000000e+03 in 25 cells on zone 900 in domain 1
 
 absolute pressure limited to 5.000000e+10 in 263016 cells on zone 900 

 turbulent viscosity limited to viscosity ratio of 1.000000e+05 in 254095 cells 
   442  3.7344e+10  7.6970e-02  1.9025e-01  1.2643e-01  3.1641e-02  9.9463e-01  4.9516e-01  0:05:54   58
 temperature limited to 5.000000e+03 in 51 cells on zone 900 in domain 1
 
 absolute pressure limited to 5.000000e+10 in 263050 cells on zone 900 

 turbulent viscosity limited to viscosity ratio of 1.000000e+05 in 253542 cells 
   443  3.6731e+10  8.0210e-02  1.9976e-01  1.1988e-01  3.0368e-02  9.9061e-01  4.9233e-01  0:05:48   57
 temperature limited to 5.000000e+03 in 115 cells on zone 900 in domain 1
 
 absolute pressure limited to 5.000000e+10 in 263029 cells on zone 900 

 turbulent viscosity limited to viscosity ratio of 1.000000e+05 in 253790 cells 
   444  3.3937e+10  7.6591e-02  1.9116e-01  1.1618e-01  3.2857e-02  9.9065e-01  4.9035e-01  0:05:43   56
 temperature limited to 5.000000e+03 in 668 cells on zone 900 in domain 1
  temperature limited to 5.000000e+03 on 2 faces

 absolute pressure limited to 5.000000e+10 in 263015 cells on zone 900 

 turbulent viscosity limited to viscosity ratio of 1.000000e+05 in 253187 cells 
   445  3.3268e+10  7.7411e-02  1.8906e-01  1.2245e-01  3.4074e-02  9.8935e-01  4.8898e-01  0:05:37   55
 temperature limited to 5.000000e+03 in 309 cells on zone 900 in domain 1
  temperature limited to 5.000000e+03 on 11 faces

 absolute pressure limited to 5.000000e+10 in 263060 cells on zone 900 

 turbulent viscosity limited to viscosity ratio of 1.000000e+05 in 253734 cells 
   446  3.2456e+10  7.6282e-02  1.8628e-01  1.1555e-01  3.4522e-02  9.9945e-01  4.9928e-01  0:05:30   54
 temperature limited to 5.000000e+03 in 53 cells on zone 900 in domain 1
  temperature limited to 5.000000e+03 on 27 faces

 absolute pressure limited to 5.000000e+10 in 263028 cells on zone 900 

 turbulent viscosity limited to viscosity ratio of 1.000000e+05 in 253306 cells 
   447  3.0154e+10  7.4368e-02  1.8080e-01  1.1982e-01  3.4380e-02  9.9917e-01  4.9928e-01  0:05:24   53
 temperature limited to 5.000000e+03 in 55 cells on zone 900 in domain 1
  temperature limited to 5.000000e+03 on 35 faces

 absolute pressure limited to 5.000000e+10 in 263045 cells on zone 900 

 turbulent viscosity limited to viscosity ratio of 1.000000e+05 in 253575 cells 
   448  3.0693e+10  7.5741e-02  1.8562e-01  1.2058e-01  3.3112e-02  9.9594e-01  4.9830e-01  0:05:17   52
 temperature limited to 5.000000e+03 in 81 cells on zone 900 in domain 1
  temperature limited to 5.000000e+03 on 35 faces

 absolute pressure limited to 5.000000e+10 in 263035 cells on zone 900 

 turbulent viscosity limited to viscosity ratio of 1.000000e+05 in 252970 cells 
   449  3.0060e+10  7.6857e-02  1.8850e-01  1.2202e-01  3.4269e-02  9.9031e-01  4.9620e-01  0:05:11   51
 temperature limited to 5.000000e+03 in 36 cells on zone 900 in domain 1
  temperature limited to 5.000000e+03 on 39 faces

 absolute pressure limited to 5.000000e+10 in 263000 cells on zone 900 

 turbulent viscosity limited to viscosity ratio of 1.000000e+05 in 253266 cells 
   450  2.8533e+10  7.9402e-02  1.9452e-01  1.1868e-01  3.4075e-02  9.9208e-01  4.9513e-01  0:05:04   50
 temperature limited to 5.000000e+03 in 109 cells on zone 900 in domain 1
  temperature limited to 5.000000e+03 on 43 faces

 absolute pressure limited to 5.000000e+10 in 263082 cells on zone 900 

 turbulent viscosity limited to viscosity ratio of 1.000000e+05 in 252653 cells 
   451  3.0047e+10  7.7832e-02  1.9027e-01  1.1833e-01  3.3606e-02  9.9517e-01  4.9447e-01  0:04:57   49
 temperature limited to 5.000000e+03 in 101 cells on zone 900 in domain 1
  temperature limited to 5.000000e+03 on 53 faces

 absolute pressure limited to 5.000000e+10 in 263065 cells on zone 900 

 turbulent viscosity limited to viscosity ratio of 1.000000e+05 in 252732 cells 

  iter  continuity  x-velocity  y-velocity  z-velocity      energy           k       omega     time/iter
   452  3.0450e+10  7.5393e-02  1.8126e-01  1.2447e-01  3.2400e-02  9.9768e-01  4.9672e-01  0:04:50   48
 temperature limited to 5.000000e+03 in 2006 cells on zone 900 in domain 1
  temperature limited to 5.000000e+03 on 29 faces

 absolute pressure limited to 5.000000e+10 in 263071 cells on zone 900 

 turbulent viscosity limited to viscosity ratio of 1.000000e+05 in 252175 cells 
   453  2.8069e+10  7.3919e-02  1.7838e-01  1.2226e-01  3.2614e-02  9.9963e-01  4.9939e-01  0:04:44   47
 temperature limited to 5.000000e+03 in 74 cells on zone 900 in domain 1
 
 absolute pressure limited to 5.000000e+10 in 263091 cells on zone 900 

 turbulent viscosity limited to viscosity ratio of 1.000000e+05 in 252827 cells 
   454  2.8492e+10  7.2259e-02  1.7204e-01  1.2847e-01  3.2038e-02  9.9896e-01  4.9912e-01  0:04:38   46
