/opt/crc/a/ansys/2024R1/v241/fluent/fluent24.1.0/bin/fluent -r24.1.0 3ddp -t4 -g
/opt/crc/a/ansys/2024R1/v241/fluent/fluent24.1.0/cortex/lnamd64/cortex.24.1.0 -f fluent -g (fluent "3ddp -pshmem  -host -r24.1.0 -t4 -mpi=intel -path/opt/crc/a/ansys/2024R1/v241/fluent -ssh")

Opening input/output transcript to file "/tmp/1066629.1.long/worker-241760-657499/task.13/fluent-20250107-021959-658208.trn".
Auto-Transcript Start Time:  02:19:59, 07 Jan 2025 
/opt/crc/a/ansys/2024R1/v241/fluent/fluent24.1.0/bin/fluent -r24.1.0 3ddp -pshmem -host -t4 -mpi=intel -path/opt/crc/a/ansys/2024R1/v241/fluent -ssh -cx d32cepyc184.crc.nd.edu:46221:41481
Starting /opt/crc/a/ansys/2024R1/v241/fluent/fluent24.1.0/lnamd64/3ddp_host/fluent.24.1.0 host -cx d32cepyc184.crc.nd.edu:46221:41481 "(list (rpsetvar (QUOTE parallel/function) "fluent 3ddp -flux -node -r24.1.0 -t4 -pshmem -mpi=intel -ssh") (rpsetvar (QUOTE parallel/rhost) "") (rpsetvar (QUOTE parallel/ruser) "") (rpsetvar (QUOTE parallel/nprocs_string) "4") (rpsetvar (QUOTE parallel/auto-spawn?) #t) (rpsetvar (QUOTE parallel/trace-level) 0) (rpsetvar (QUOTE parallel/remote-shell) 1) (rpsetvar (QUOTE parallel/path) "/opt/crc/a/ansys/2024R1/v241/fluent") (rpsetvar (QUOTE parallel/hostsfile) "") (rpsetvar (QUOTE gpuapp/devices) ""))"

              Welcome to ANSYS Fluent 2024 R1

              Copyright 1987-2024 ANSYS, Inc. All Rights Reserved.
              Unauthorized use, distribution or duplication is prohibited.
              This product is subject to U.S. laws governing export and re-export.
              For full Legal Notice, see documentation.

Build Time: Nov 22 2023 10:07:25 EST  Build Id: 10184  
 
Connected License Server List:	7504@linux5-lic.crc.nd.edu

     --------------------------------------------------------------
     This is an academic version of ANSYS FLUENT. Usage of this product
     license is limited to the terms and conditions specified in your ANSYS
     license form, additional terms section.
     --------------------------------------------------------------
Host spawning Node 0 on machine "d32cepyc184.crc.nd.edu" (unix).
/opt/crc/a/ansys/2024R1/v241/fluent/fluent24.1.0/bin/fluent -r24.1.0 3ddp -flux -node -t4 -pshmem -mpi=intel -ssh -mport 10.32.91.135:10.32.91.135:42665:0
Starting /opt/crc/a/ansys/2024R1/v241/fluent/fluent24.1.0/multiport/mpi/lnamd64/intel2021/bin/mpirun --rsh=ssh -f /tmp/fluent-appfile.etracey.659482 -genv I_MPI_FABRICS shm -genv FLUENT_ARCH lnamd64 -genv I_MPI_DEBUG 0 -genv I_MPI_ADJUST_GATHERV 3 -genv I_MPI_ADJUST_ALLREDUCE 2 -genv I_MPI_PLATFORM auto -genv PYTHONHOME /opt/crc/a/ansys/2024R1/v241/fluent/fluent24.1.0/../../commonfiles/CPython/3_10/linx64/Release/python -genv FLUENT_PROD_DIR /opt/crc/a/ansys/2024R1/v241/fluent/fluent24.1.0 -genv FLUENT_AFFINITY 0 -genv I_MPI_PIN enable -genv KMP_AFFINITY disabled -n 4 /opt/crc/a/ansys/2024R1/v241/fluent/fluent24.1.0/lnamd64/3ddp_node/fluent_mpi.24.1.0 node -mpiw intel -pic shmem -mport 10.32.91.135:10.32.91.135:42665:0

----------------------------------------------------------------------------------
ID    Hostname              Core  O.S.      PID            Vendor                
----------------------------------------------------------------------------------
n0-3  d32cepyc184.crc.nd.e  4/64  Linux-64  659586-659589  AMD EPYC 7543 32-Core 
host  d32cepyc184.crc.nd.e        Linux-64  658802         AMD EPYC 7543 32-Core 

MPI Option Selected: intel
Selected system interconnect: shared-memory
----------------------------------------------------------------------------------


Initializing SGE
Done.
Cleanup script file is /tmp/1066629.1.long/worker-241760-657499/task.13/cleanup-fluent-d32cepyc184.crc.nd.edu-658802.sh
Key Behavioral Changes:
Fluent Guided Meshing Workflows: 
Workflow template files (.wft) are now saved by default whenever the mesh is saved. You can change the automatic creation of .wft files in Preferences. 
Journaling: 
When Ansys Fluent encounters an invalid input in a journal file that is being replayed, it now raises an error condition and aborts the journal processing. 
Turbulence: 
The value of kappa used in the Spalart-Allmaras model for interior terms was inconsistent with the reference publications of the model. Fluent historically used a value of 0.4187, but to produce results consistent with the published model, the value should be 0.41. This issue was first addressed in a previous Fluent version and access to the kappa value was given in the GUI while keeping the old default of 0.4187. In Fluent 2024 R1, the default value is now changed to 0.41. 
Turbomachinery: 
For Blade Film Cooling, you can now specify stationary holes on the surfaces of a moving/rotating cell zone in transient cases. 
Boundaries previously referred to as "casings" in the Turbo Topology definition are now referred to as "shrouds." 
Density-Based Solver: 
The High Speed Numerics have been updated to increase the robustness of the Roe-FDS numerical flux against shock-instabilities and the carbuncle phenomenon. This modification may produce a slight solution change for cases combining Roe-FDS and HSN. 
Multiphase Models: 
Modeling of open channel flows in conjunction with the translation moving reference frame (MRF) has been improved resulting in more accurate and stable solution. In addition, a solution methodology has been suggested to provide better stability for high-speed hull simulations. 
Parallel Processing: 
Using dynamic process spawning now requires that you manually specify the interconnect as -pethernet for shared memory or distributed memory without InfiniBand, and -pib.ofed for distributed memory over InfiniBand. 
Refer to the Ansys, Inc. Release Notes for a full listing of the new features included in Ansys Fluent 2024 R1. 
> Fast-loading "/opt/crc/a/ansys/2024R1/v241/fluent/fluent24.1.0/addons/afd/lib/hdfio.bin"
Done.
WARNING: Rank:0 Machine d32cepyc184.crc.nd.edu has 16 % of RAM filled with file buffer caches.
This can cause potential performance issues. Please use -cflush flag to flush the cache. 


Reading from d32cepyc184.crc.nd.edu:"/tmp/1066629.1.long/worker-241760-657499/task.13/case.cas.h5" in NODE0 mode ...
  Reading mesh ...
      421271 cells,     1 cell zone  ...
         421271 polyhedra cells,  zone id: 1386
     2389129 faces,     5 face zones ...
            140 polygonal pressure-far-field faces,  zone id: 17
            143 polygonal pressure-far-field faces,  zone id: 18
           2146 polygonal pressure-far-field faces,  zone id: 19
          53062 polygonal wall faces,  zone id: 20
        2333638 polygonal interior faces,  zone id: 1385
     1712407 nodes,     1 node zone  ...
  Done.


Building...
     mesh
	auto partitioning mesh by Metis (fast),
	distributing mesh
		parts....,
		faces....,
		nodes....,
		cells....,
        bandwidth reduction using Reverse Cuthill-McKee: 105091/6604 = 15.9132
  Reading boundary layer flags ...
  Done.

     materials,
     interface,
     domains,
	mixture
     zones,
	inlet
	outlet
	farfield
	launchvehicle
	interior--solid
	solid
     parallel,
Done.
Warning: Pressure far-field boundary condition can only be used with ideal gas law.
  Please change either the boundary condition type or enable ideal gas law.
  Solver cannot proceed until this is fixed.
	Warning: Pressure far-field boundary condition can only be used with ideal gas law.
  Please change either the boundary condition type or enable ideal gas law.
  Solver cannot proceed until this is fixed.
	
> adjoint/                parallel/               server/
define/                 parametric-study/       solve/
display/                plot/                   surface/
exit                    preferences/            turbo-workflow/
file/                   print-license-usage     views/
mesh/                   report/

> air is a fluid

Density
no data required.


Note: Enabling energy equation as required by material density method.

> adjoint/                parallel/               server/
define/                 parametric-study/       solve/
display/                plot/                   surface/
exit                    preferences/            turbo-workflow/
file/                   print-license-usage     views/
mesh/                   report/

> 
> adjoint/                parallel/               server/
define/                 parametric-study/       solve/
display/                plot/                   surface/
exit                    preferences/            turbo-workflow/
file/                   print-license-usage     views/
mesh/                   report/

> 
> adjoint/                parallel/               server/
define/                 parametric-study/       solve/
display/                plot/                   surface/
exit                    preferences/            turbo-workflow/
file/                   print-license-usage     views/
mesh/                   report/

> (farfield outlet inlet)

> (farfield outlet inlet)

> (farfield outlet inlet)

> adjoint/                parallel/               server/
define/                 parametric-study/       solve/
display/                plot/                   surface/
exit                    preferences/            turbo-workflow/
file/                   print-license-usage     views/
mesh/                   report/

> (launchvehicle)

> adjoint/                parallel/               server/
define/                 parametric-study/       solve/
display/                plot/                   surface/
exit                    preferences/            turbo-workflow/
file/                   print-license-usage     views/
mesh/                   report/

> 
> 
> 
> 
> 
> 
> adjoint/                parallel/               server/
define/                 parametric-study/       solve/
display/                plot/                   surface/
exit                    preferences/            turbo-workflow/
file/                   print-license-usage     views/
mesh/                   report/

> 
> 
> 
> adjoint/                parallel/               server/
define/                 parametric-study/       solve/
display/                plot/                   surface/
exit                    preferences/            turbo-workflow/
file/                   print-license-usage     views/
mesh/                   report/

> 
> 
> 
> adjoint/                parallel/               server/
define/                 parametric-study/       solve/
display/                plot/                   surface/
exit                    preferences/            turbo-workflow/
file/                   print-license-usage     views/
mesh/                   report/

> 
> adjoint/                parallel/               server/
define/                 parametric-study/       solve/
display/                plot/                   surface/
exit                    preferences/            turbo-workflow/
file/                   print-license-usage     views/
mesh/                   report/

> 
Initialize using the hybrid initialization method.

Checking case topology... 
-This case has multiple farfield bc 
-Case will be initialized with constant parameters

	iter		scalar-0

	1		1.000000e+00
	2		2.655022e-04
	3		3.712170e-05
	4		8.459536e-06
	5		2.266805e-06
	6		4.928053e-07
	7		2.197431e-07
	8		9.080075e-08
	9		6.708392e-08
	10		3.858749e-08

Hybrid initialization is done.

Note: Settings to improve the robustness of pathline and
      particle tracking have been automatically enabled.


> 
  iter  continuity  x-velocity  y-velocity  z-velocity      energy           k       omega     time/iter
     1  1.0000e+00  1.1106e-04  1.9516e-04  1.7474e-04  2.0504e-06  8.2562e-01  4.4855e-01  0:22:58  499
     2  9.7984e-01  8.9725e-05  1.7771e-04  1.0940e-04  1.9720e-06  7.3408e-01  4.2147e-01  0:23:20  498
     3  1.0000e+00  9.9345e-05  2.5454e-04  1.1021e-04  1.8384e-06  5.8652e-01  3.8298e-01  0:23:32  497
     4  1.0000e+00  1.1007e-04  5.5051e-04  1.0811e-04  3.6962e-06  4.0717e-01  3.2926e-01  0:23:38  496
     5  1.0000e+00  2.0822e-04  1.4803e-03  2.3291e-04  1.6514e-05  4.0202e-01  2.6235e-01  0:23:38  495
     6  2.4549e+00  4.7754e-04  3.9870e-03  6.3662e-04  9.2786e-05  5.1146e-01  2.5196e-01  0:23:45  494
     7  4.1007e+00  1.1826e-03  8.4218e-03  1.4366e-03  1.3094e-04  6.1883e-01  2.7522e-01  0:23:33  493
     8  5.0005e+00  1.3269e-03  8.8316e-03  1.9249e-03  2.2365e-04  5.8939e-01  2.9540e-01  0:23:22  492
     9  6.0851e+00  2.4993e-03  1.4833e-02  2.8039e-03  2.0573e-04  6.1652e-01  3.1695e-01  0:23:10  491
    10  6.0811e+00  1.9582e-03  1.1400e-02  2.7465e-03  3.1187e-04  5.9578e-01  3.2682e-01  0:23:02  490
    11  8.3885e+00  3.9889e-03  2.2146e-02  3.9184e-03  4.3411e-04  7.2197e-01  4.0647e-01  0:22:54  489

  iter  continuity  x-velocity  y-velocity  z-velocity      energy           k       omega     time/iter
    12  8.4977e+00  3.8502e-03  1.8367e-02  4.8956e-03  4.9829e-04  6.7043e-01  3.9045e-01  0:23:42  488
    13  9.5174e+00  5.8908e-03  3.1404e-02  5.1932e-03  4.9458e-04  7.0504e-01  4.3051e-01  0:23:25  487
    14  1.2818e+01  5.6599e-03  2.9929e-02  5.8438e-03  7.2340e-04  7.4766e-01  4.4461e-01  0:24:15  486
    15  1.1540e+01  1.0418e-02  4.2314e-02  7.2925e-03  6.0488e-04  6.6481e-01  4.0569e-01  0:24:04  485
    16  1.3459e+01  8.1019e-03  3.7264e-02  7.2667e-03  1.3702e-03  7.2270e-01  4.4775e-01  0:23:32  484
    17  1.4534e+01  1.4056e-02  5.5815e-02  8.1853e-03  9.7706e-04  6.8547e-01  4.3798e-01  0:23:01  483
    18  1.4691e+01  1.2931e-02  4.5607e-02  1.0029e-02  1.3162e-03  6.8767e-01  4.3696e-01  0:24:01  482
    19  1.6337e+01  1.3709e-02  6.6482e-02  1.0664e-02  1.1599e-03  6.9104e-01  4.5131e-01  0:24:37  481
    20  1.6404e+01  1.1858e-02  6.0415e-02  1.1675e-02  1.7602e-03  7.0707e-01  4.5481e-01  0:24:38  480
    21  1.7148e+01  1.8806e-02  8.1721e-02  1.4558e-02  1.2182e-03  6.4645e-01  4.2170e-01  0:24:46  479
    22  2.0081e+01  1.4906e-02  7.5491e-02  1.8143e-02  1.9318e-03  7.4532e-01  4.9127e-01  0:24:08  478

  iter  continuity  x-velocity  y-velocity  z-velocity      energy           k       omega     time/iter
    23  1.8202e+01  2.1471e-02  8.9525e-02  1.4905e-02  1.7588e-03  6.8930e-01  4.3403e-01  0:23:58  477
    24  2.0910e+01  2.2243e-02  9.2694e-02  1.8092e-02  2.4695e-03  6.8107e-01  4.5868e-01  0:23:33  476
    25  2.1653e+01  2.2823e-02  1.0358e-01  1.7443e-02  2.5286e-03  7.0947e-01  4.6162e-01  0:23:09  475
    26  2.2157e+01  2.6247e-02  1.1543e-01  1.8430e-02  2.8905e-03  7.2160e-01  4.8798e-01  0:22:58  474
    27  2.1645e+01  2.8415e-02  1.0422e-01  1.9901e-02  2.7755e-03  6.5535e-01  4.2401e-01  0:22:34  473
    28  2.4526e+01  3.2911e-02  1.2070e-01  2.1153e-02  2.7178e-03  6.4500e-01  4.4290e-01  0:22:20  472
    29  2.2648e+01  3.5053e-02  1.1989e-01  2.2184e-02  2.6617e-03  7.3002e-01  4.7972e-01  0:22:09  471
    30  2.4304e+01  4.3235e-02  1.2243e-01  2.4102e-02  3.0189e-03  7.6927e-01  5.0057e-01  0:22:29  470
    31  2.4988e+01  4.7328e-02  1.2453e-01  2.2720e-02  3.1865e-03  6.9271e-01  4.6002e-01  0:22:13  469
    32  2.5863e+01  3.5567e-02  1.2365e-01  2.0578e-02  4.1658e-03  7.3596e-01  4.9792e-01  0:21:59  468
    33  2.6022e+01  4.3637e-02  1.3388e-01  2.3448e-02  3.5260e-03  6.9577e-01  4.6557e-01  0:21:55  467

  iter  continuity  x-velocity  y-velocity  z-velocity      energy           k       omega     time/iter
    34  2.7575e+01  4.4852e-02  1.3244e-01  2.3780e-02  4.8452e-03  6.4964e-01  4.6081e-01  0:21:42  466
    35  2.8365e+01  4.1762e-02  1.2315e-01  2.2217e-02  3.3393e-03  6.6617e-01  4.6339e-01  0:21:35  465
    36  2.8011e+01  4.2285e-02  1.3038e-01  2.4415e-02  6.1547e-03  7.3536e-01  5.0540e-01  0:21:20  464
    37  3.0266e+01  4.6686e-02  1.4142e-01  2.5298e-02  4.4198e-03  6.9079e-01  4.7973e-01  0:21:14  463
    38  3.0853e+01  4.3927e-02  1.1933e-01  2.3604e-02  4.2568e-03  6.9858e-01  4.8267e-01  0:21:02  462
    39  2.9678e+01  4.6856e-02  1.3102e-01  2.4852e-02  4.4351e-03  8.4482e-01  6.1193e-01  0:21:19  461
    40  3.1077e+01  4.6075e-02  1.1135e-01  2.4134e-02  5.2527e-03  8.3290e-01  4.8198e-01  0:21:10  460
    41  3.3057e+01  5.8521e-02  1.1246e-01  2.4429e-02  4.2057e-03  7.4481e-01  4.9622e-01  0:21:16  459
    42  3.3000e+01  4.1816e-02  1.0922e-01  2.1856e-02  5.9261e-03  8.2924e-01  5.8786e-01  0:21:29  458
    43  3.2727e+01  5.2185e-02  1.1677e-01  2.4445e-02  4.8045e-03  8.5775e-01  4.9124e-01  0:22:06  457
    44  3.3661e+01  4.5441e-02  1.1191e-01  2.2352e-02  5.0443e-03  7.8513e-01  5.1975e-01  0:22:31  456

  iter  continuity  x-velocity  y-velocity  z-velocity      energy           k       omega     time/iter
    45  3.5647e+01  4.7453e-02  9.7383e-02  2.1099e-02  4.8090e-03  7.3398e-01  4.6264e-01  0:22:13  455
    46  3.4815e+01  5.0866e-02  1.1539e-01  2.4316e-02  6.5714e-03  7.1111e-01  4.9559e-01  0:21:45  454
    47  3.6462e+01  6.1971e-02  9.8221e-02  2.2392e-02  8.9798e-03  7.4930e-01  5.2438e-01  0:21:18  453
    48  3.6280e+01  5.7974e-02  8.7215e-02  1.9809e-02  5.9501e-03  7.0336e-01  4.8166e-01  0:21:21  452
    49  3.9509e+01  4.8399e-02  8.3255e-02  1.8476e-02  8.0974e-03  6.1559e-01  4.6123e-01  0:21:10  451
    50  3.8005e+01  3.9659e-02  1.0816e-01  1.9355e-02  7.4510e-03  6.6950e-01  5.3878e-01  0:20:59  450
    51  3.8388e+01  5.2656e-02  8.8597e-02  2.0465e-02  4.8352e-03  7.9046e-01  5.2887e-01  0:20:49  449
    52  3.9398e+01  4.0148e-02  7.3881e-02  1.7907e-02  4.7624e-03  7.7276e-01  4.9962e-01  0:20:39  448
    53  4.2542e+01  3.1548e-02  8.3625e-02  1.7914e-02  5.5448e-03  6.9366e-01  4.6771e-01  0:20:36  447
    54  4.0877e+01  3.6195e-02  7.9986e-02  1.6741e-02  4.6782e-03  7.1703e-01  5.4592e-01  0:20:43  446
    55  4.1061e+01  3.5792e-02  7.5391e-02  1.7366e-02  5.0092e-03  7.9080e-01  5.2338e-01  0:20:49  445

  iter  continuity  x-velocity  y-velocity  z-velocity      energy           k       omega     time/iter
    56  4.2441e+01  3.6960e-02  6.6319e-02  1.5185e-02  4.8514e-03  7.5591e-01  4.8259e-01  0:20:34  444
    57  4.5759e+01  2.9862e-02  7.3379e-02  1.4965e-02  8.0747e-03  5.8677e-01  4.7393e-01  0:20:20  443
    58  4.4518e+01  2.9117e-02  8.3365e-02  1.6217e-02  5.2636e-03  5.4027e-01  4.5099e-01  0:20:04  442
    59  4.3975e+01  3.5475e-02  6.9531e-02  1.5688e-02  6.0011e-03  9.6801e-01  8.9454e-01  0:19:56  441
    60  4.6773e+01  3.5877e-02  6.9104e-02  1.5548e-02  4.9750e-03  8.8021e-01  4.8709e-01  0:19:50  440
    61  5.0636e+01  3.2360e-02  7.1213e-02  1.5478e-02  7.3849e-03  7.3963e-01  4.9078e-01  0:19:46  439
    62  4.9529e+01  3.8013e-02  7.9928e-02  1.6030e-02  6.5361e-03  5.7049e-01  4.7755e-01  0:19:41  438
    63  5.0499e+01  4.0301e-02  7.1436e-02  1.6055e-02  9.2841e-03  8.7595e-01  7.4956e-01  0:19:36  437
    64  5.1751e+01  4.4655e-02  7.8436e-02  1.6476e-02  8.3731e-03  9.1076e-01  5.1480e-01  0:19:31  436
    65  5.6455e+01  3.7953e-02  8.4850e-02  1.6598e-02  7.1801e-03  8.5556e-01  5.1713e-01  0:19:25  435
    66  5.4045e+01  4.4670e-02  7.7614e-02  1.8518e-02  6.0723e-03  7.1869e-01  4.7393e-01  0:19:22  434

  iter  continuity  x-velocity  y-velocity  z-velocity      energy           k       omega     time/iter
    67  5.7058e+01  4.0101e-02  7.3041e-02  1.7330e-02  7.9729e-03  6.7625e-01  4.9335e-01  0:19:22  433
    68  5.5349e+01  4.6288e-02  7.7267e-02  2.0173e-02  6.4038e-03  6.9362e-01  4.8210e-01  0:19:24  432
    69  5.8126e+01  3.8143e-02  8.1807e-02  1.7972e-02  8.8119e-03  6.4210e-01  5.4529e-01  0:19:22  431
    70  5.8377e+01  3.7374e-02  7.7091e-02  1.7085e-02  7.1607e-03  6.5124e-01  4.7125e-01  0:19:15  430
    71  6.0043e+01  4.4800e-02  7.6421e-02  1.6464e-02  9.0889e-03  7.6670e-01  6.5194e-01  0:19:09  429
    72  6.0749e+01  3.9497e-02  8.7938e-02  1.8506e-02  7.9534e-03  7.9443e-01  4.9066e-01  0:19:06  428
    73  6.1246e+01  3.5473e-02  8.3888e-02  1.7838e-02  7.6943e-03  6.6306e-01  4.9832e-01  0:19:03  427
    74  6.4058e+01  4.5228e-02  8.0393e-02  1.8749e-02  8.8096e-03  6.2751e-01  5.0965e-01  0:19:04  426
    75  6.4737e+01  4.3828e-02  8.3356e-02  1.8465e-02  8.7442e-03  6.6427e-01  5.3806e-01  0:19:06  425
    76  6.4354e+01  4.0358e-02  8.9717e-02  1.9173e-02  7.8978e-03  7.6924e-01  5.2971e-01  0:19:01  424
    77  6.6347e+01  4.1035e-02  8.6322e-02  1.9415e-02  8.6912e-03  7.8298e-01  5.1206e-01  0:18:55  423

  iter  continuity  x-velocity  y-velocity  z-velocity      energy           k       omega     time/iter
    78  7.1773e+01  4.8421e-02  8.5651e-02  2.0005e-02  9.7689e-03  7.1696e-01  4.8722e-01  0:18:51  422
    79  7.0437e+01  5.1934e-02  8.4622e-02  1.8749e-02  9.7921e-03  6.7056e-01  5.2012e-01  0:18:45  421
    80  6.9758e+01  3.9622e-02  1.0162e-01  2.1092e-02  9.0518e-03  8.0713e-01  5.8620e-01  0:18:48  420
    81  7.2737e+01  4.5729e-02  9.0507e-02  2.0397e-02  1.0548e-02  8.7833e-01  4.9901e-01  0:18:49  419
    82  7.5348e+01  5.5499e-02  8.4831e-02  2.1309e-02  9.7505e-03  8.0135e-01  5.1210e-01  0:18:46  418
    83  7.9743e+01  4.7042e-02  9.6655e-02  2.1497e-02  1.4741e-02  8.1830e-01  5.7452e-01  0:18:40  417
    84  7.7379e+01  4.6133e-02  9.9818e-02  2.0494e-02  1.1234e-02  8.3639e-01  5.2127e-01  0:19:11  416
    85  8.4201e+01  4.9619e-02  9.4977e-02  2.0455e-02  1.4315e-02  9.1794e-01  5.9367e-01  0:19:02  415
    86  8.1338e+01  4.1829e-02  9.0326e-02  2.0107e-02  9.3234e-03  8.6627e-01  4.8901e-01  0:18:56  414
    87  9.1491e+01  4.2000e-02  9.3676e-02  2.0582e-02  1.3711e-02  1.0273e+00  5.9334e-01  0:18:52  413
    88  8.6720e+01  4.4058e-02  1.1198e-01  2.4429e-02  1.2273e-02  9.0376e-01  5.0033e-01  0:18:47  412

  iter  continuity  x-velocity  y-velocity  z-velocity      energy           k       omega     time/iter
    89  9.0031e+01  4.7167e-02  9.2629e-02  2.2178e-02  1.4460e-02  9.1304e-01  5.0822e-01  0:18:43  411
    90  8.8586e+01  6.0704e-02  9.4228e-02  2.4664e-02  1.2225e-02  1.0568e+00  6.0242e-01  0:18:40  410
    91  1.0276e+02  5.3809e-02  1.1194e-01  2.6853e-02  1.7692e-02  9.2229e-01  4.9515e-01  0:18:36  409
    92  9.4846e+01  5.4057e-02  1.0756e-01  2.3849e-02  1.1570e-02  9.0555e-01  5.1341e-01  0:18:37  408
    93  9.8826e+01  5.4926e-02  1.0429e-01  2.4099e-02  1.9055e-02  1.0175e+00  5.6602e-01  0:18:32  407
    94  1.0331e+02  4.4854e-02  1.2440e-01  2.5445e-02  1.5295e-02  8.9922e-01  4.7635e-01  0:18:25  406
    95  1.0771e+02  5.0517e-02  1.2031e-01  2.5177e-02  1.7560e-02  1.0276e+00  5.6449e-01  0:18:19  405
    96  1.0418e+02  5.4972e-02  1.1342e-01  2.5734e-02  1.7985e-02  1.0484e+00  5.8306e-01  0:18:14  404
    97  1.1323e+02  5.3430e-02  1.0657e-01  2.5284e-02  1.8748e-02  9.5064e-01  5.1461e-01  0:18:10  403
    98  1.1790e+02  5.6537e-02  1.0800e-01  2.5936e-02  1.8067e-02  1.0504e+00  5.9858e-01  0:18:07  402
    99  1.1576e+02  5.0086e-02  1.1976e-01  2.6983e-02  1.8612e-02  9.9886e-01  5.2300e-01  0:18:04  401

  iter  continuity  x-velocity  y-velocity  z-velocity      energy           k       omega     time/iter
   100  1.1598e+02  5.5765e-02  1.0817e-01  2.5390e-02  2.0559e-02  9.8631e-01  5.2474e-01  0:18:00  400
   101  1.2449e+02  6.3360e-02  1.0804e-01  2.6392e-02  1.9462e-02  1.0151e+00  5.6151e-01  0:17:54  399
   102  1.3182e+02  5.0518e-02  1.1050e-01  2.6180e-02  1.8462e-02  9.5181e-01  5.0220e-01  0:17:49  398
   103  1.2357e+02  5.2112e-02  1.2534e-01  2.7289e-02  2.7021e-02  1.1443e+00  6.0410e-01  0:17:46  397
   104  1.2719e+02  5.1836e-02  1.4238e-01  2.9934e-02  1.8345e-02  9.9813e-01  5.2115e-01  0:17:44  396
   105  1.3672e+02  5.1371e-02  1.1272e-01  2.7658e-02  1.7705e-02  9.4762e-01  5.0303e-01  0:17:43  395
   106  1.4940e+02  5.3041e-02  1.2966e-01  3.1348e-02  2.1721e-02  1.0249e+00  5.5907e-01  0:17:39  394
   107  1.3392e+02  5.0120e-02  1.2388e-01  2.8507e-02  2.8242e-02  1.0152e+00  5.3676e-01  0:17:34  393
   108  1.3771e+02  5.6752e-02  1.3452e-01  2.9643e-02  1.6884e-02  1.0506e+00  5.6567e-01  0:17:29  392
   109  1.5147e+02  5.6784e-02  1.2968e-01  3.2065e-02  2.0079e-02  9.9590e-01  5.3517e-01  0:17:28  391
   110  1.5387e+02  4.7704e-02  1.1253e-01  2.8950e-02  2.1897e-02  9.3163e-01  5.0220e-01  0:17:27  390

  iter  continuity  x-velocity  y-velocity  z-velocity      energy           k       omega     time/iter
   111  1.4832e+02  5.9341e-02  1.2335e-01  2.8875e-02  2.0921e-02  1.2517e+00  6.5662e-01  0:17:25  389
   112  1.4418e+02  4.9724e-02  1.1871e-01  3.0302e-02  2.2275e-02  9.8403e-01  5.2082e-01  0:17:22  388
   113  1.6552e+02  4.7351e-02  1.1437e-01  2.7360e-02  1.9730e-02  9.7876e-01  5.3479e-01  0:17:18  387
   114  1.6639e+02  4.9344e-02  1.2312e-01  3.1974e-02  2.8308e-02  1.0196e+00  5.4851e-01  0:17:14  386
   115  1.6241e+02  5.4363e-02  1.4087e-01  3.0328e-02  2.1997e-02  9.9374e-01  5.1935e-01  0:17:11  385
   116  1.5597e+02  5.1346e-02  1.1563e-01  3.0337e-02  1.8758e-02  1.0564e+00  5.5927e-01  0:17:11  384
   117  1.9192e+02  5.6860e-02  1.3252e-01  3.4294e-02  2.5204e-02  9.9432e-01  5.2855e-01  0:17:11  383
   118  1.7633e+02  5.4691e-02  1.0874e-01  2.7270e-02  2.5771e-02  9.4464e-01  5.0292e-01  0:17:07  382
   119  1.7744e+02  5.3326e-02  1.4537e-01  3.3157e-02  2.2560e-02  1.2645e+00  6.7107e-01  0:17:04  381
   120  1.7416e+02  5.3334e-02  1.2000e-01  2.9245e-02  2.5629e-02  9.8897e-01  5.1297e-01  0:17:01  380
   121  2.1388e+02  4.9268e-02  1.3730e-01  3.0901e-02  2.4298e-02  9.8323e-01  5.2529e-01  0:16:56  379

  iter  continuity  x-velocity  y-velocity  z-velocity      energy           k       omega     time/iter
   122  1.9023e+02  5.3165e-02  1.1758e-01  3.0193e-02  3.0013e-02  9.7895e-01  5.2937e-01  0:16:53  378
   123  1.9968e+02  5.3719e-02  1.3355e-01  3.0966e-02  3.1228e-02  1.0981e+00  5.9808e-01  0:16:49  377
   124  1.9467e+02  5.1056e-02  1.3152e-01  3.1490e-02  3.1248e-02  9.9210e-01  5.1930e-01  0:16:44  376
   125  2.3359e+02  5.1343e-02  1.2916e-01  2.9144e-02  3.0941e-02  1.0157e+00  5.3929e-01  0:16:45  375
   126  2.1302e+02  5.5887e-02  1.1150e-01  2.9846e-02  2.0527e-02  9.8252e-01  5.2027e-01  0:16:42  374
   127  2.1812e+02  5.4032e-02  1.3249e-01  3.0817e-02  2.6150e-02  1.0424e+00  5.5594e-01  0:16:39  373
   128  2.0579e+02  5.2355e-02  1.1662e-01  2.9942e-02  1.8967e-02  9.9251e-01  5.2234e-01  0:16:38  372
   129  2.4650e+02  6.0043e-02  1.1637e-01  3.2463e-02  2.4247e-02  1.0223e+00  5.4522e-01  0:16:37  371
   130  2.2932e+02  5.0055e-02  1.3308e-01  3.5053e-02  2.5623e-02  9.7392e-01  5.2652e-01  0:16:35  370
   131  2.4597e+02  5.2698e-02  1.2516e-01  3.1195e-02  3.6171e-02  1.1278e+00  6.3120e-01  0:16:31  369
   132  2.2773e+02  5.2792e-02  1.1690e-01  3.0473e-02  3.2345e-02  9.7858e-01  5.2061e-01  0:16:28  368

  iter  continuity  x-velocity  y-velocity  z-velocity      energy           k       omega     time/iter
   133  2.6462e+02  5.3386e-02  1.1925e-01  3.0521e-02  2.3284e-02  1.0081e+00  5.3491e-01  0:16:26  367
   134  2.4835e+02  6.0523e-02  1.1961e-01  3.6604e-02  2.2934e-02  9.8689e-01  5.3547e-01  0:16:24  366
   135  2.7256e+02  5.0677e-02  1.2971e-01  3.2918e-02  2.5138e-02  9.7503e-01  5.1749e-01  0:16:22  365
   136  2.5055e+02  4.1652e-02  1.1226e-01  2.9711e-02  2.7248e-02  1.0029e+00  5.3872e-01  0:16:22  364
   137  2.9038e+02  6.8867e-02  1.1515e-01  3.3246e-02  3.4327e-02  1.0526e+00  5.8379e-01  0:16:19  363
   138  2.7994e+02  4.0204e-02  1.2152e-01  2.9417e-02  2.6494e-02  9.4409e-01  5.0555e-01  0:16:20  362
   139  2.8023e+02  4.3588e-02  1.2910e-01  2.8967e-02  3.0565e-02  1.0535e+00  5.8701e-01  0:16:16  361
   140  2.6165e+02  5.2614e-02  1.2737e-01  3.1350e-02  3.5715e-02  9.7798e-01  5.1843e-01  0:16:13  360
   141  2.9320e+02  5.3608e-02  1.3125e-01  3.0654e-02  2.6356e-02  9.6826e-01  5.2220e-01  0:16:18  359
   142  2.9609e+02  5.5688e-02  1.3671e-01  3.2079e-02  4.2741e-02  9.8911e-01  5.4548e-01  0:16:13  358
   143  3.0162e+02  5.5856e-02  1.5611e-01  3.3907e-02  5.9588e-02  9.7434e-01  5.2489e-01  0:17:10  357

  iter  continuity  x-velocity  y-velocity  z-velocity      energy           k       omega     time/iter
   144  2.9194e+02  4.3493e-02  1.2926e-01  3.0149e-02  3.3413e-02  9.9088e-01  5.4339e-01  0:16:56  356
   145  3.3383e+02  7.1055e-02  1.0840e-01  3.3578e-02  3.2401e-02  9.8952e-01  5.3900e-01  0:17:01  355
   146  3.1149e+02  4.4787e-02  1.3197e-01  3.1937e-02  2.9380e-02  1.0446e+00  5.6543e-01  0:17:54  354
   147  3.1951e+02  5.5960e-02  1.2574e-01  3.1007e-02  3.5718e-02  1.0018e+00  5.3579e-01  0:18:02  353
   148  2.9371e+02  4.9793e-02  1.1464e-01  2.8774e-02  2.9954e-02  9.8253e-01  5.2209e-01  0:17:35  352
   149  3.3704e+02  5.9134e-02  1.3725e-01  3.4097e-02  2.5393e-02  1.0145e+00  5.3952e-01  0:17:37  351
   150  3.2109e+02  5.1688e-02  1.3609e-01  3.5421e-02  3.4757e-02  9.7001e-01  5.1457e-01  0:17:16  350
   151  3.2310e+02  5.3264e-02  1.4534e-01  3.3698e-02  3.7642e-02  9.6405e-01  5.1075e-01  0:16:58  349
   152  3.3232e+02  5.5849e-02  1.4818e-01  3.5007e-02  4.4129e-02  1.0230e+00  5.4509e-01  0:16:43  348
   153  3.4028e+02  7.6639e-02  9.7062e-02  3.1654e-02  4.9938e-02  1.0511e+00  5.6372e-01  0:16:33  347
   154  3.3863e+02  4.4351e-02  1.3590e-01  2.7949e-02  3.5944e-02  1.0333e+00  5.3883e-01  0:17:05  346

  iter  continuity  x-velocity  y-velocity  z-velocity      energy           k       omega     time/iter
   155  3.4801e+02  5.8246e-02  1.2965e-01  3.1284e-02  4.3383e-02  1.0093e+00  5.4019e-01  0:16:34  345
   156  3.3271e+02  5.3473e-02  1.3004e-01  3.0573e-02  2.9106e-02  1.0184e+00  5.3390e-01  0:16:20  344
   157  3.3850e+02  6.0597e-02  1.2570e-01  3.3118e-02  2.6790e-02  1.0350e+00  5.4364e-01  0:15:46  343
   158  3.4680e+02  5.6520e-02  1.4222e-01  3.3735e-02  2.5433e-02  9.9736e-01  5.1453e-01  0:15:40  342
   159  3.5313e+02  5.9153e-02  1.4216e-01  3.5854e-02  2.5390e-02  1.0082e+00  5.2845e-01  0:15:37  341
   160  3.2771e+02  6.1211e-02  1.3372e-01  3.5953e-02  2.5752e-02  1.0286e+00  5.3905e-01  0:15:35  340
   161  3.3424e+02  6.2273e-02  1.1582e-01  3.1631e-02  2.8649e-02  1.0208e+00  5.3300e-01  0:15:33  339
   162  3.4172e+02  4.9511e-02  1.3785e-01  3.0947e-02  3.4356e-02  1.0857e+00  5.6906e-01  0:15:29  338
   163  3.6395e+02  5.5361e-02  1.3044e-01  3.1784e-02  2.5916e-02  1.0102e+00  5.2901e-01  0:15:28  337
   164  3.4124e+02  5.5802e-02  1.2400e-01  3.1471e-02  3.2824e-02  1.0436e+00  5.5182e-01  0:15:25  336
   165  3.5591e+02  6.7105e-02  1.1987e-01  3.2996e-02  2.7323e-02  1.0132e+00  5.2902e-01  0:15:22  335

  iter  continuity  x-velocity  y-velocity  z-velocity      energy           k       omega     time/iter
   166  3.6598e+02  5.2394e-02  1.4621e-01  3.3476e-02  2.8269e-02  1.0201e+00  5.2730e-01  0:15:20  334
   167  3.5756e+02  6.5052e-02  1.3523e-01  3.4903e-02  2.8371e-02  9.8509e-01  5.1625e-01  0:15:16  333
   168  3.5834e+02  5.6182e-02  1.4865e-01  3.3718e-02  2.5107e-02  1.0525e+00  5.5233e-01  0:15:12  332
   169  3.5933e+02  6.1579e-02  1.2407e-01  3.4251e-02  2.7830e-02  9.8542e-01  5.1599e-01  0:15:11  331
   170  3.7546e+02  4.9478e-02  1.4551e-01  3.2173e-02  2.4510e-02  1.0656e+00  5.5582e-01  0:15:11  330
   171  3.6068e+02  5.9220e-02  1.3380e-01  3.3565e-02  3.1787e-02  9.8391e-01  5.2595e-01  0:15:08  329
   172  3.8745e+02  5.1906e-02  1.3733e-01  3.3845e-02  2.4574e-02  9.7557e-01  5.2229e-01  0:15:02  328
   173  3.5519e+02  6.1816e-02  1.1295e-01  3.0908e-02  2.0986e-02  9.7747e-01  5.3476e-01  0:14:59  327
   174  3.9428e+02  5.3720e-02  1.4989e-01  3.4381e-02  2.3121e-02  1.0306e+00  5.5867e-01  0:14:58  326
   175  3.5499e+02  5.7458e-02  1.1569e-01  2.9934e-02  2.2731e-02  9.8547e-01  5.2614e-01  0:14:53  325
   176  4.1684e+02  5.7294e-02  1.3090e-01  3.2333e-02  3.0866e-02  1.0245e+00  5.5505e-01  0:14:48  324

  iter  continuity  x-velocity  y-velocity  z-velocity      energy           k       omega     time/iter
   177  3.8971e+02  5.2419e-02  1.1535e-01  2.9326e-02  3.1088e-02  9.8034e-01  5.2007e-01  0:14:43  323
   178  4.2094e+02  4.5305e-02  1.4703e-01  3.0398e-02  3.0859e-02  1.0742e+00  5.8336e-01  0:14:42  322
   179  3.8904e+02  5.3098e-02  1.2313e-01  3.0696e-02  2.6674e-02  9.9483e-01  5.2276e-01  0:14:41  321
   180  4.3809e+02  5.0926e-02  1.2626e-01  3.2445e-02  3.0791e-02  9.9810e-01  5.2630e-01  0:14:16  320
   181  4.1018e+02  5.9648e-02  1.2460e-01  3.4156e-02  2.5821e-02  9.8544e-01  5.1243e-01  0:13:58  319
   182  4.3890e+02  5.1539e-02  1.5342e-01  3.5899e-02  2.6549e-02  1.0299e+00  5.3741e-01  0:13:40  318
   183  4.2281e+02  6.0506e-02  1.2292e-01  3.0893e-02  2.5570e-02  1.0033e+00  5.2719e-01  0:14:10  317
   184  4.7424e+02  5.3662e-02  1.2857e-01  3.2191e-02  3.7346e-02  1.0317e+00  5.3839e-01  0:13:51  316
   185  4.3577e+02  6.0828e-02  1.1324e-01  3.1038e-02  2.6584e-02  1.0112e+00  5.2535e-01  0:13:55  315
   186  4.7435e+02  5.1181e-02  1.4717e-01  3.4778e-02  3.6069e-02  1.0636e+00  5.6133e-01  0:13:58  314
   187  4.2312e+02  5.3668e-02  1.1192e-01  3.0561e-02  2.2819e-02  9.9231e-01  5.0885e-01  0:13:37  313

  iter  continuity  x-velocity  y-velocity  z-velocity      energy           k       omega     time/iter
   188  5.0270e+02  6.2173e-02  1.4029e-01  3.8360e-02  3.1678e-02  1.0541e+00  5.4207e-01  0:13:21  312
   189  4.7856e+02  6.2742e-02  1.2686e-01  3.4960e-02  4.4671e-02  1.0009e+00  5.1819e-01  0:13:26  311
   190  5.1253e+02  4.7604e-02  1.2146e-01  2.9037e-02  3.6368e-02  1.0787e+00  5.6417e-01  0:13:30  310
   191  4.5074e+02  5.9013e-02  1.1311e-01  2.9218e-02  3.6145e-02  1.0271e+00  5.3083e-01  0:13:30  309
   192  5.2516e+02  5.0424e-02  1.3566e-01  3.3468e-02  3.7961e-02  1.0080e+00  5.2838e-01  0:13:10  308
   193  4.7263e+02  6.4637e-02  1.0926e-01  3.2356e-02  2.8400e-02  1.0014e+00  5.1714e-01  0:12:54  307
   194  5.3763e+02  5.1575e-02  1.4773e-01  3.7176e-02  3.0283e-02  1.0504e+00  5.4165e-01  0:13:05  306
   195  4.5449e+02  6.1953e-02  1.1497e-01  3.3221e-02  2.8914e-02  1.0020e+00  5.1577e-01  0:12:49  305
   196  5.5867e+02  6.0799e-02  1.4506e-01  3.5694e-02  3.2791e-02  1.0700e+00  5.5617e-01  0:12:57  304
   197  4.8270e+02  6.3671e-02  1.1005e-01  3.1863e-02  2.9027e-02  1.0026e+00  5.1491e-01  0:13:06  303
   198  5.5346e+02  4.8039e-02  1.3630e-01  3.0812e-02  3.0765e-02  1.0414e+00  5.4492e-01  0:12:49  302

  iter  continuity  x-velocity  y-velocity  z-velocity      energy           k       omega     time/iter
   199  4.9561e+02  5.9508e-02  1.1829e-01  3.0015e-02  3.6019e-02  1.0538e+00  5.5424e-01  0:12:35  301
   200  6.1296e+02  5.1278e-02  1.3028e-01  3.1414e-02  3.8465e-02  1.0477e+00  5.4763e-01  0:12:45  300
   201  5.3878e+02  5.4215e-02  1.1200e-01  3.0692e-02  3.3098e-02  1.0249e+00  5.3272e-01  0:12:32  299
   202  6.2203e+02  5.3103e-02  1.4411e-01  3.4538e-02  3.5968e-02  1.0050e+00  5.2356e-01  0:12:57  298
   203  5.2947e+02  4.8681e-02  1.2032e-01  3.1793e-02  2.9478e-02  1.0335e+00  5.3021e-01  0:12:40  297
   204  6.2917e+02  6.0291e-02  1.4284e-01  3.5502e-02  3.1625e-02  1.0485e+00  5.3612e-01  0:12:30  296
   205  6.1338e+02  5.2622e-02  1.1089e-01  3.1772e-02  3.0035e-02  1.0172e+00  5.2591e-01  0:12:22  295
   206  6.6236e+02  4.6388e-02  1.2360e-01  2.9870e-02  3.9566e-02  1.1145e+00  5.7976e-01  0:12:32  294
   207  5.8385e+02  5.6290e-02  9.6490e-02  2.8647e-02  4.5271e-02  1.0413e+00  5.3252e-01  0:12:20  293
   208  6.6811e+02  5.3541e-02  1.2200e-01  2.9198e-02  3.0738e-02  1.0575e+00  5.5572e-01  0:12:12  292
   209  6.4176e+02  5.0084e-02  1.0317e-01  3.0343e-02  2.6761e-02  1.0110e+00  5.1873e-01  0:12:05  291

  iter  continuity  x-velocity  y-velocity  z-velocity      energy           k       omega     time/iter
   210  7.2838e+02  5.2472e-02  1.2389e-01  3.2923e-02  2.9738e-02  1.0254e+00  5.2928e-01  0:11:56  290
   211  6.1436e+02  4.9895e-02  1.0029e-01  2.6981e-02  2.5311e-02  1.0325e+00  5.2875e-01  0:11:48  289
   212  7.1693e+02  5.4288e-02  1.1357e-01  3.3365e-02  3.0772e-02  1.1096e+00  5.7232e-01  0:11:39  288
   213  7.2130e+02  4.8658e-02  1.0410e-01  3.0670e-02  2.5374e-02  1.0063e+00  5.1395e-01  0:11:32  287
   214  7.8181e+02  4.6026e-02  1.0890e-01  2.9320e-02  3.6094e-02  1.0498e+00  5.3803e-01  0:11:28  286
   215  7.1994e+02  5.6087e-02  9.2676e-02  2.8951e-02  3.8912e-02  1.0622e+00  5.4669e-01  0:11:25  285
   216  8.5644e+02  5.2740e-02  1.0923e-01  3.1988e-02  3.5272e-02  1.0980e+00  5.7571e-01  0:11:41  284
   217  8.2685e+02  4.3867e-02  9.7954e-02  3.0713e-02  2.7686e-02  1.0307e+00  5.3075e-01  0:12:00  283
   218  8.7463e+02  4.3712e-02  1.0500e-01  2.8759e-02  2.8081e-02  1.0135e+00  5.2047e-01  0:12:23  282
   219  8.4368e+02  4.6635e-02  9.2091e-02  2.9906e-02  2.7825e-02  1.0234e+00  5.2150e-01  0:12:05  281
   220  8.6701e+02  4.6796e-02  8.7992e-02  3.1812e-02  2.7673e-02  1.0183e+00  5.2415e-01  0:11:52  280

  iter  continuity  x-velocity  y-velocity  z-velocity      energy           k       omega     time/iter
   221  1.0206e+03  4.3290e-02  9.4887e-02  2.9753e-02  3.2703e-02  1.0261e+00  5.3078e-01  0:11:52  279
   222  9.3207e+02  3.0776e-02  8.6499e-02  2.8579e-02  2.4040e-02  9.8823e-01  5.1123e-01  0:11:33  278
   223  1.0115e+03  4.5476e-02  9.0558e-02  3.0280e-02  3.8062e-02  1.1560e+00  6.1276e-01  0:11:16  277
   224  1.0785e+03  5.0096e-02  9.0818e-02  3.0305e-02  3.6890e-02  1.0119e+00  5.1979e-01  0:11:04  276
   225  1.2003e+03  4.2080e-02  1.0587e-01  3.6433e-02  3.0507e-02  9.9955e-01  5.1593e-01  0:10:55  275
   226  1.2454e+03  3.8274e-02  1.0308e-01  3.8882e-02  3.5957e-02  1.0283e+00  5.3945e-01  0:10:51  274
   227  1.3200e+03  5.6651e-02  8.0949e-02  3.5775e-02  3.2501e-02  1.0306e+00  5.4174e-01  0:10:46  273
   228  1.3643e+03  3.8613e-02  7.5862e-02  3.0252e-02  2.5035e-02  1.0005e+00  5.2092e-01  0:10:44  272
   229  1.5830e+03  3.1578e-02  7.0700e-02  3.1424e-02  3.1867e-02  9.7178e-01  5.1900e-01  0:10:43  271
   230  1.6586e+03  2.6537e-02  6.6971e-02  2.6724e-02  2.4499e-02  9.2315e-01  4.9130e-01  0:10:43  270
   231  1.8955e+03  2.6352e-02  5.3396e-02  2.4430e-02  2.4468e-02  8.6071e-01  4.8354e-01  0:10:42  269

  iter  continuity  x-velocity  y-velocity  z-velocity      energy           k       omega     time/iter
   232  2.1677e+03  2.4188e-02  4.6226e-02  2.3909e-02  2.0401e-02  8.0913e-01  4.5107e-01  0:11:17  268
   233  2.6443e+03  2.2072e-02  4.3416e-02  2.4531e-02  2.1732e-02  7.1397e-01  4.2589e-01  0:11:09  267
   234  3.3360e+03  2.1406e-02  4.5130e-02  2.8053e-02  2.1611e-02  6.6420e-01  4.1838e-01  0:11:00  266
   235  4.4241e+03  2.1191e-02  4.3155e-02  3.3805e-02  2.0810e-02  6.8301e-01  4.1977e-01  0:11:01  265
   236  6.0025e+03  1.7951e-02  3.6735e-02  3.5665e-02  1.7795e-02  6.5510e-01  4.3255e-01  0:10:59  264
   237  8.1899e+03  1.3194e-02  2.6294e-02  3.0059e-02  1.3022e-02  6.4006e-01  4.1368e-01  0:10:53  263
   238  1.0655e+04  1.1540e-02  2.3293e-02  2.8342e-02  1.0763e-02  6.2288e-01  3.4450e-01  0:11:07  262
   239  1.4414e+04  1.0264e-02  1.7883e-02  2.5862e-02  1.1263e-02  4.4035e-01  3.0999e-01  0:11:03  261
   240  2.0234e+04  8.7312e-03  1.4724e-02  2.3987e-02  1.1697e-02  3.8436e-01  3.0738e-01  0:10:56  260
   241  2.7914e+04  7.3787e-03  1.2984e-02  2.1660e-02  1.0315e-02  4.3360e-01  3.4180e-01  0:10:46  259
   242  3.7893e+04  6.5373e-03  1.2424e-02  1.9608e-02  1.0161e-02  4.8605e-01  3.2123e-01  0:11:15  258

  iter  continuity  x-velocity  y-velocity  z-velocity      energy           k       omega     time/iter
   243  5.1286e+04  7.0268e-03  1.2435e-02  1.9577e-02  1.0447e-02  4.4987e-01  3.4016e-01  0:10:58  257

 turbulent viscosity limited to viscosity ratio of 1.000000e+05 in 100 cells 
   244  6.9275e+04  8.1776e-03  1.3166e-02  2.1424e-02  1.1810e-02  4.8018e-01  3.4690e-01  0:10:48  256

 turbulent viscosity limited to viscosity ratio of 1.000000e+05 in 2637 cells 
   245  9.3288e+04  9.7148e-03  1.5217e-02  2.6741e-02  1.3335e-02  4.5896e-01  3.4853e-01  0:10:38  255

 turbulent viscosity limited to viscosity ratio of 1.000000e+05 in 8173 cells 
   246  1.2565e+05  1.2156e-02  1.8056e-02  3.4541e-02  1.3999e-02  4.7878e-01  3.4125e-01  0:10:30  254

 turbulent viscosity limited to viscosity ratio of 1.000000e+05 in 11494 cells 
   247  1.6821e+05  1.4725e-02  2.1202e-02  4.1326e-02  1.3799e-02  4.7442e-01  3.2754e-01  0:10:23  253

 turbulent viscosity limited to viscosity ratio of 1.000000e+05 in 16911 cells 
   248  2.2427e+05  1.6054e-02  2.1230e-02  4.2406e-02  1.2346e-02  5.1209e-01  3.1379e-01  0:10:16  252

 turbulent viscosity limited to viscosity ratio of 1.000000e+05 in 26272 cells 
   249  2.9598e+05  1.4331e-02  1.9197e-02  3.7038e-02  1.0939e-02  5.3287e-01  3.2257e-01  0:10:10  251

 turbulent viscosity limited to viscosity ratio of 1.000000e+05 in 48139 cells 
   250  3.8922e+05  1.2232e-02  1.7378e-02  3.0443e-02  1.1020e-02  6.0525e-01  3.3720e-01  0:10:03  250

 turbulent viscosity limited to viscosity ratio of 1.000000e+05 in 81522 cells 
   251  4.8789e+05  1.0865e-02  1.5356e-02  2.5226e-02  1.2436e-02  6.7482e-01  3.7676e-01  0:10:34  249

 turbulent viscosity limited to viscosity ratio of 1.000000e+05 in 105836 cells 
   252  5.9015e+05  1.0768e-02  1.5227e-02  2.0995e-02  1.3725e-02  7.1140e-01  3.6385e-01  0:10:55  248

 turbulent viscosity limited to viscosity ratio of 1.000000e+05 in 123532 cells 
   253  7.4418e+05  1.1261e-02  1.5525e-02  2.1156e-02  1.4561e-02  6.5705e-01  3.7596e-01  0:11:07  247

 turbulent viscosity limited to viscosity ratio of 1.000000e+05 in 146633 cells 

  iter  continuity  x-velocity  y-velocity  z-velocity      energy           k       omega     time/iter
   254  9.2491e+05  1.1354e-02  1.6225e-02  2.3555e-02  1.5987e-02  8.1665e-01  4.4403e-01  0:10:50  246

 turbulent viscosity limited to viscosity ratio of 1.000000e+05 in 173784 cells 
   255  1.2015e+06  1.3690e-02  1.8660e-02  2.7644e-02  1.7318e-02  6.6399e-01  4.0228e-01  0:10:36  245

 turbulent viscosity limited to viscosity ratio of 1.000000e+05 in 200463 cells 
   256  1.6350e+06  1.5396e-02  2.0301e-02  3.2263e-02  1.6189e-02  6.4904e-01  3.8322e-01  0:10:24  244

 turbulent viscosity limited to viscosity ratio of 1.000000e+05 in 224829 cells 
   257  2.1998e+06  1.5460e-02  1.9614e-02  3.3042e-02  1.5844e-02  5.2445e-01  3.5528e-01  0:10:13  243

 turbulent viscosity limited to viscosity ratio of 1.000000e+05 in 245208 cells 
   258  2.9650e+06  1.3463e-02  1.7934e-02  3.0092e-02  1.5331e-02  5.9779e-01  3.5925e-01  0:10:04  242

 turbulent viscosity limited to viscosity ratio of 1.000000e+05 in 267361 cells 
   259  3.7153e+06  1.1018e-02  1.5949e-02  2.4340e-02  1.4391e-02  6.8817e-01  3.7618e-01  0:09:57  241

 turbulent viscosity limited to viscosity ratio of 1.000000e+05 in 282692 cells 
   260  4.2603e+06  9.6099e-03  1.4069e-02  1.9465e-02  1.5330e-02  8.9807e-01  4.3795e-01  0:09:49  240

 turbulent viscosity limited to viscosity ratio of 1.000000e+05 in 288396 cells 
   261  5.2204e+06  9.4078e-03  1.3740e-02  1.7278e-02  1.5002e-02  9.3897e-01  4.3728e-01  0:09:45  239

 turbulent viscosity limited to viscosity ratio of 1.000000e+05 in 286651 cells 
   262  6.3526e+06  8.7812e-03  1.2879e-02  1.6454e-02  1.4740e-02  9.2926e-01  4.3845e-01  0:09:42  238

 turbulent viscosity limited to viscosity ratio of 1.000000e+05 in 288289 cells 
   263  8.0219e+06  9.0543e-03  1.3405e-02  1.7575e-02  1.6167e-02  9.3351e-01  4.5047e-01  0:09:40  237

 turbulent viscosity limited to viscosity ratio of 1.000000e+05 in 290613 cells 
   264  1.0636e+07  8.9326e-03  1.4739e-02  2.0084e-02  1.7878e-02  8.8540e-01  4.2861e-01  0:09:38  236

 turbulent viscosity limited to viscosity ratio of 1.000000e+05 in 296857 cells 

  iter  continuity  x-velocity  y-velocity  z-velocity      energy           k       omega     time/iter
   265  1.4181e+07  9.7448e-03  1.8086e-02  2.3003e-02  2.0820e-02  7.8517e-01  4.1354e-01  0:09:34  235

 turbulent viscosity limited to viscosity ratio of 1.000000e+05 in 306862 cells 
   266  2.0160e+07  1.1058e-02  2.0569e-02  2.7297e-02  2.1501e-02  6.6167e-01  3.8353e-01  0:09:26  234

 turbulent viscosity limited to viscosity ratio of 1.000000e+05 in 327204 cells 
   267  2.5414e+07  1.1599e-02  2.0737e-02  2.9441e-02  2.1035e-02  7.3852e-01  4.1048e-01  0:09:21  233

 turbulent viscosity limited to viscosity ratio of 1.000000e+05 in 346181 cells 
   268  3.0816e+07  1.0662e-02  2.0400e-02  2.7292e-02  2.0624e-02  8.2721e-01  4.2020e-01  0:09:16  232

 turbulent viscosity limited to viscosity ratio of 1.000000e+05 in 347981 cells 
   269  3.4065e+07  9.8312e-03  1.8764e-02  2.3349e-02  2.1481e-02  8.8958e-01  4.3723e-01  0:09:13  231

 absolute pressure limited to 5.000000e+10 in 4 cells on zone 1386 

 turbulent viscosity limited to viscosity ratio of 1.000000e+05 in 338979 cells 
   270  3.9383e+07  9.6542e-03  1.7012e-02  2.0860e-02  2.1005e-02  9.4338e-01  4.4290e-01  0:09:12  230

 absolute pressure limited to 5.000000e+10 in 12 cells on zone 1386 

 turbulent viscosity limited to viscosity ratio of 1.000000e+05 in 327325 cells 
   271  4.4646e+07  9.0954e-03  1.6180e-02  2.0046e-02  2.2276e-02  9.2098e-01  4.3627e-01  0:09:12  229

 absolute pressure limited to 5.000000e+10 in 18 cells on zone 1386 

 turbulent viscosity limited to viscosity ratio of 1.000000e+05 in 315760 cells 
   272  5.3864e+07  9.5620e-03  1.6173e-02  2.1689e-02  2.3080e-02  8.7505e-01  4.1447e-01  0:09:11  228

 absolute pressure limited to 5.000000e+10 in 41 cells on zone 1386 

 turbulent viscosity limited to viscosity ratio of 1.000000e+05 in 307791 cells 
   273  6.6385e+07  9.8543e-03  1.8604e-02  2.5411e-02  2.5442e-02  8.3985e-01  4.1552e-01  0:09:09  227

 absolute pressure limited to 5.000000e+10 in 104 cells on zone 1386 

 turbulent viscosity limited to viscosity ratio of 1.000000e+05 in 307203 cells 
   274  8.5387e+07  1.1605e-02  2.1029e-02  3.1880e-02  2.9518e-02  7.4782e-01  4.2144e-01  0:09:07  226

 absolute pressure limited to 5.000000e+10 in 186 cells on zone 1386 

 turbulent viscosity limited to viscosity ratio of 1.000000e+05 in 314710 cells 
   275  1.0838e+08  1.3667e-02  2.5795e-02  3.9729e-02  3.0605e-02  7.4565e-01  3.9013e-01  0:09:06  225

 absolute pressure limited to 5.000000e+10 in 14661 cells on zone 1386 

 turbulent viscosity limited to viscosity ratio of 1.000000e+05 in 325272 cells 

  iter  continuity  x-velocity  y-velocity  z-velocity      energy           k       omega     time/iter
   276  1.2318e+08  1.5823e-02  3.0360e-02  4.6142e-02  2.8457e-02  8.8687e-01  4.0768e-01  0:09:03  224

 absolute pressure limited to 5.000000e+10 in 60363 cells on zone 1386 

 turbulent viscosity limited to viscosity ratio of 1.000000e+05 in 335030 cells 
   277  1.3011e+08  1.6676e-02  3.1276e-02  4.4566e-02  2.7598e-02  8.2647e-01  3.7718e-01  0:09:01  223

 absolute pressure limited to 5.000000e+10 in 71817 cells on zone 1386 

 turbulent viscosity limited to viscosity ratio of 1.000000e+05 in 343983 cells 
   278  1.2221e+08  1.6582e-02  2.8721e-02  3.9096e-02  2.7397e-02  8.8981e-01  4.0981e-01  0:08:58  222

 absolute pressure limited to 5.000000e+10 in 73845 cells on zone 1386 

 turbulent viscosity limited to viscosity ratio of 1.000000e+05 in 350163 cells 
   279  1.2627e+08  1.7160e-02  2.6945e-02  3.8110e-02  2.8256e-02  9.4103e-01  4.4596e-01  0:08:55  221

 absolute pressure limited to 5.000000e+10 in 61407 cells on zone 1386 

 turbulent viscosity limited to viscosity ratio of 1.000000e+05 in 351756 cells 
   280  1.4194e+08  1.8172e-02  2.8450e-02  3.6589e-02  3.2852e-02  9.0553e-01  4.3242e-01  0:08:51  220

 absolute pressure limited to 5.000000e+10 in 153465 cells on zone 1386 

 turbulent viscosity limited to viscosity ratio of 1.000000e+05 in 350821 cells 
   281  1.5487e+08  2.0157e-02  3.5127e-02  3.8463e-02  3.4984e-02  9.6853e-01  4.7001e-01  0:08:49  219

 absolute pressure limited to 5.000000e+10 in 309003 cells on zone 1386 

 turbulent viscosity limited to viscosity ratio of 1.000000e+05 in 354923 cells 
   282  1.6541e+08  2.0812e-02  4.0618e-02  4.0763e-02  3.2936e-02  9.5186e-01  4.6490e-01  0:08:45  218

 absolute pressure limited to 5.000000e+10 in 373872 cells on zone 1386 

 turbulent viscosity limited to viscosity ratio of 1.000000e+05 in 368122 cells 
   283  1.6948e+08  2.3536e-02  4.8188e-02  4.7191e-02  3.7355e-02  9.6889e-01  4.7642e-01  0:08:43  217

 absolute pressure limited to 5.000000e+10 in 353672 cells on zone 1386 

 turbulent viscosity limited to viscosity ratio of 1.000000e+05 in 371061 cells 
   284  1.6891e+08  2.4220e-02  4.8345e-02  4.8925e-02  3.6045e-02  9.8011e-01  4.8515e-01  0:08:43  216

 absolute pressure limited to 5.000000e+10 in 406917 cells on zone 1386 

 turbulent viscosity limited to viscosity ratio of 1.000000e+05 in 354601 cells 
   285  1.9483e+08  2.3006e-02  4.5542e-02  4.7654e-02  3.5211e-02  9.8641e-01  4.9127e-01  0:08:42  215

 absolute pressure limited to 5.000000e+10 in 420920 cells on zone 1386 

 turbulent viscosity limited to viscosity ratio of 1.000000e+05 in 337774 cells 
   286  2.1098e+08  1.9641e-02  4.3988e-02  4.8154e-02  5.3372e-02  9.9982e-01  4.9975e-01  0:08:41  214

 absolute pressure limited to 5.000000e+10 in 421168 cells on zone 1386 

 turbulent viscosity limited to viscosity ratio of 1.000000e+05 in 335138 cells 

  iter  continuity  x-velocity  y-velocity  z-velocity      energy           k       omega     time/iter
   287  2.1777e+08  2.6992e-02  4.7768e-02  5.1907e-02  4.2637e-02  9.9895e-01  4.9881e-01  0:08:40  213

 absolute pressure limited to 5.000000e+10 in 421202 cells on zone 1386 

 turbulent viscosity limited to viscosity ratio of 1.000000e+05 in 329893 cells 
   288  2.4312e+08  2.3379e-02  5.1046e-02  5.8955e-02  4.1741e-02  1.0029e+00  4.9896e-01  0:08:36  212

 absolute pressure limited to 5.000000e+10 in 421194 cells on zone 1386 

 turbulent viscosity limited to viscosity ratio of 1.000000e+05 in 328649 cells 
   289  2.6254e+08  2.2368e-02  5.4280e-02  6.3857e-02  3.6794e-02  1.0059e+00  5.0054e-01  0:08:33  211

 absolute pressure limited to 5.000000e+10 in 421216 cells on zone 1386 

 turbulent viscosity limited to viscosity ratio of 1.000000e+05 in 328615 cells 
   290  2.9199e+08  2.1824e-02  5.5741e-02  6.7799e-02  3.7770e-02  9.9713e-01  4.9367e-01  0:08:42  210

 absolute pressure limited to 5.000000e+10 in 421190 cells on zone 1386 

 turbulent viscosity limited to viscosity ratio of 1.000000e+05 in 328420 cells 
   291  2.7134e+08  2.2984e-02  6.6619e-02  6.7763e-02  3.3693e-02  9.9483e-01  4.9401e-01  0:08:49  209

 absolute pressure limited to 5.000000e+10 in 421146 cells on zone 1386 

 turbulent viscosity limited to viscosity ratio of 1.000000e+05 in 323783 cells 
   292  2.1695e+08  2.4749e-02  5.8094e-02  6.6954e-02  3.9148e-02  1.0011e+00  4.9942e-01  0:08:55  208

 absolute pressure limited to 5.000000e+10 in 421140 cells on zone 1386 

 turbulent viscosity limited to viscosity ratio of 1.000000e+05 in 318222 cells 
   293  2.1648e+08  2.8459e-02  6.2724e-02  7.7046e-02  4.3788e-02  1.0056e+00  5.0147e-01  0:08:59  207

 absolute pressure limited to 5.000000e+10 in 421075 cells on zone 1386 

 turbulent viscosity limited to viscosity ratio of 1.000000e+05 in 318755 cells 
   294  2.2366e+08  2.7597e-02  6.4206e-02  7.7314e-02  4.7228e-02  1.0014e+00  5.0082e-01  0:09:02  206

 absolute pressure limited to 5.000000e+10 in 421084 cells on zone 1386 

 turbulent viscosity limited to viscosity ratio of 1.000000e+05 in 312234 cells 
   295  2.1407e+08  2.6945e-02  7.1946e-02  6.9250e-02  4.7672e-02  1.0012e+00  5.0028e-01  0:09:04  205

 absolute pressure limited to 5.000000e+10 in 421117 cells on zone 1386 

 turbulent viscosity limited to viscosity ratio of 1.000000e+05 in 309120 cells 
   296  2.2227e+08  2.9945e-02  7.3102e-02  6.6626e-02  4.7906e-02  1.0041e+00  5.0088e-01  0:09:05  204

 absolute pressure limited to 5.000000e+10 in 421098 cells on zone 1386 

 turbulent viscosity limited to viscosity ratio of 1.000000e+05 in 302450 cells 
   297  2.3283e+08  3.0711e-02  7.1932e-02  6.5028e-02  4.7507e-02  1.0003e+00  5.0003e-01  0:09:04  203

 absolute pressure limited to 5.000000e+10 in 421091 cells on zone 1386 

 turbulent viscosity limited to viscosity ratio of 1.000000e+05 in 297195 cells 

  iter  continuity  x-velocity  y-velocity  z-velocity      energy           k       omega     time/iter
   298  2.3033e+08  2.7110e-02  6.8971e-02  6.3258e-02  4.3071e-02  1.0013e+00  5.0021e-01  0:09:06  202

 absolute pressure limited to 5.000000e+10 in 421099 cells on zone 1386 

 turbulent viscosity limited to viscosity ratio of 1.000000e+05 in 294351 cells 
   299  2.5225e+08  2.6711e-02  6.6484e-02  6.4051e-02  4.2216e-02  1.0048e+00  5.0064e-01  0:09:05  201

 absolute pressure limited to 5.000000e+10 in 421100 cells on zone 1386 

 turbulent viscosity limited to viscosity ratio of 1.000000e+05 in 302136 cells 
   300  2.5904e+08  2.8014e-02  7.1480e-02  6.4364e-02  4.2673e-02  1.0074e+00  5.0089e-01  0:09:03  200

 absolute pressure limited to 5.000000e+10 in 421116 cells on zone 1386 

 turbulent viscosity limited to viscosity ratio of 1.000000e+05 in 302665 cells 
   301  2.7271e+08  2.7796e-02  7.1627e-02  6.2469e-02  4.3124e-02  1.0079e+00  5.0147e-01  0:09:00  199

 absolute pressure limited to 5.000000e+10 in 421104 cells on zone 1386 

 turbulent viscosity limited to viscosity ratio of 1.000000e+05 in 311073 cells 
   302  3.0097e+08  2.5250e-02  7.1044e-02  6.3081e-02  4.4288e-02  1.0022e+00  4.9984e-01  0:08:58  198

 absolute pressure limited to 5.000000e+10 in 421092 cells on zone 1386 

 turbulent viscosity limited to viscosity ratio of 1.000000e+05 in 314796 cells 
   303  3.0190e+08  2.4702e-02  7.1371e-02  6.0756e-02  4.3063e-02  1.0034e+00  5.0113e-01  0:08:56  197

 absolute pressure limited to 5.000000e+10 in 421102 cells on zone 1386 

 turbulent viscosity limited to viscosity ratio of 1.000000e+05 in 312243 cells 
   304  3.1379e+08  2.5540e-02  6.9960e-02  6.0211e-02  4.4627e-02  1.0041e+00  5.0111e-01  0:08:54  196

 absolute pressure limited to 5.000000e+10 in 421095 cells on zone 1386 

 turbulent viscosity limited to viscosity ratio of 1.000000e+05 in 323384 cells 
   305  3.3345e+08  2.4855e-02  7.1649e-02  5.9601e-02  4.4680e-02  1.0085e+00  5.0173e-01  0:08:51  195

 absolute pressure limited to 5.000000e+10 in 421098 cells on zone 1386 

 turbulent viscosity limited to viscosity ratio of 1.000000e+05 in 327445 cells 
   306  3.4997e+08  2.4037e-02  7.0489e-02  5.9969e-02  4.3538e-02  1.0056e+00  5.0215e-01  0:08:49  194

 absolute pressure limited to 5.000000e+10 in 421100 cells on zone 1386 

 turbulent viscosity limited to viscosity ratio of 1.000000e+05 in 334115 cells 
   307  3.7154e+08  2.3051e-02  6.6755e-02  5.6682e-02  4.7277e-02  1.0014e+00  5.0052e-01  0:08:47  193

 absolute pressure limited to 5.000000e+10 in 421089 cells on zone 1386 

 turbulent viscosity limited to viscosity ratio of 1.000000e+05 in 340267 cells 
   308  3.7772e+08  2.3291e-02  6.8234e-02  5.7153e-02  4.3487e-02  1.0000e+00  4.9969e-01  0:08:44  192

 absolute pressure limited to 5.000000e+10 in 421087 cells on zone 1386 

 turbulent viscosity limited to viscosity ratio of 1.000000e+05 in 338620 cells 

  iter  continuity  x-velocity  y-velocity  z-velocity      energy           k       omega     time/iter
   309  3.7302e+08  2.3093e-02  6.7372e-02  5.5405e-02  4.5979e-02  9.9999e-01  4.9935e-01  0:08:42  191

 absolute pressure limited to 5.000000e+10 in 421110 cells on zone 1386 

 turbulent viscosity limited to viscosity ratio of 1.000000e+05 in 345157 cells 
   310  4.0832e+08  2.3545e-02  6.9820e-02  5.5844e-02  4.4679e-02  1.0177e+00  5.0288e-01  0:08:42  190

 absolute pressure limited to 5.000000e+10 in 421064 cells on zone 1386 

 turbulent viscosity limited to viscosity ratio of 1.000000e+05 in 358239 cells 
   311  4.2948e+08  2.2498e-02  6.7026e-02  5.4784e-02  4.5215e-02  1.0016e+00  5.0042e-01  0:08:39  189

 absolute pressure limited to 5.000000e+10 in 421092 cells on zone 1386 

 turbulent viscosity limited to viscosity ratio of 1.000000e+05 in 365277 cells 
   312  4.2074e+08  2.2318e-02  6.9543e-02  5.1669e-02  4.8005e-02  1.0048e+00  5.0053e-01  0:08:38  188

 absolute pressure limited to 5.000000e+10 in 421100 cells on zone 1386 

 turbulent viscosity limited to viscosity ratio of 1.000000e+05 in 366800 cells 
   313  4.4715e+08  2.2949e-02  7.0929e-02  5.3965e-02  4.6355e-02  1.0138e+00  5.0196e-01  0:08:36  187

 absolute pressure limited to 5.000000e+10 in 421087 cells on zone 1386 

 turbulent viscosity limited to viscosity ratio of 1.000000e+05 in 369275 cells 
   314  4.9338e+08  2.1039e-02  6.7570e-02  5.3141e-02  4.5073e-02  1.0017e+00  5.0001e-01  0:08:35  186

 absolute pressure limited to 5.000000e+10 in 421097 cells on zone 1386 

 turbulent viscosity limited to viscosity ratio of 1.000000e+05 in 387809 cells 
   315  4.9403e+08  2.0439e-02  6.7943e-02  5.3933e-02  4.5980e-02  1.0026e+00  5.0069e-01  0:08:32  185

 absolute pressure limited to 5.000000e+10 in 421099 cells on zone 1386 

 turbulent viscosity limited to viscosity ratio of 1.000000e+05 in 389163 cells 
   316  5.1360e+08  2.1132e-02  6.8000e-02  5.2331e-02  4.3471e-02  1.0074e+00  5.0064e-01  0:08:28  184

 absolute pressure limited to 5.000000e+10 in 421068 cells on zone 1386 

 turbulent viscosity limited to viscosity ratio of 1.000000e+05 in 397093 cells 
   317  5.3062e+08  2.1067e-02  6.6008e-02  5.8224e-02  4.5405e-02  1.0025e+00  5.0005e-01  0:08:36  183

 absolute pressure limited to 5.000000e+10 in 421095 cells on zone 1386 

 turbulent viscosity limited to viscosity ratio of 1.000000e+05 in 400240 cells 
   318  5.5280e+08  2.1251e-02  6.6784e-02  6.0924e-02  4.4685e-02  1.0067e+00  5.0297e-01  0:09:04  182

 absolute pressure limited to 5.000000e+10 in 421117 cells on zone 1386 

 turbulent viscosity limited to viscosity ratio of 1.000000e+05 in 406683 cells 
   319  6.1427e+08  2.0390e-02  6.9537e-02  5.2042e-02  6.5212e-02  1.0004e+00  4.9942e-01  0:08:39  181

 absolute pressure limited to 5.000000e+10 in 421182 cells on zone 1386 

 turbulent viscosity limited to viscosity ratio of 1.000000e+05 in 412012 cells 

  iter  continuity  x-velocity  y-velocity  z-velocity      energy           k       omega     time/iter
   320  7.5711e+08  2.1088e-02  6.3525e-02  4.5183e-02  5.1863e-02  9.9969e-01  4.9945e-01  0:08:19  180

 absolute pressure limited to 5.000000e+10 in 421221 cells on zone 1386 

 turbulent viscosity limited to viscosity ratio of 1.000000e+05 in 412580 cells 
   321  9.1264e+08  1.6464e-02  5.6816e-02  5.0263e-02  4.3654e-02  9.9846e-01  4.9864e-01  0:08:04  179

 absolute pressure limited to 5.000000e+10 in 421226 cells on zone 1386 

 turbulent viscosity limited to viscosity ratio of 1.000000e+05 in 412405 cells 
   322  1.0402e+09  1.5179e-02  5.4763e-02  4.9669e-02  3.6230e-02  9.9100e-01  4.9671e-01  0:07:51  178

 absolute pressure limited to 5.000000e+10 in 421208 cells on zone 1386 

 turbulent viscosity limited to viscosity ratio of 1.000000e+05 in 412185 cells 
   323  1.0303e+09  1.4732e-02  5.7393e-02  4.9448e-02  3.3313e-02  9.9475e-01  4.9664e-01  0:07:42  177

 absolute pressure limited to 5.000000e+10 in 421206 cells on zone 1386 

 turbulent viscosity limited to viscosity ratio of 1.000000e+05 in 414129 cells 
   324  1.0192e+09  1.5493e-02  5.5578e-02  5.2867e-02  3.1620e-02  9.9003e-01  4.9476e-01  0:07:33  176

 absolute pressure limited to 5.000000e+10 in 421206 cells on zone 1386 

 turbulent viscosity limited to viscosity ratio of 1.000000e+05 in 416595 cells 
   325  1.0020e+09  1.5744e-02  5.1687e-02  5.4866e-02  3.2094e-02  9.9321e-01  4.9491e-01  0:07:26  175

 absolute pressure limited to 5.000000e+10 in 421203 cells on zone 1386 

 turbulent viscosity limited to viscosity ratio of 1.000000e+05 in 416852 cells 
   326  9.8174e+08  1.4370e-02  5.0585e-02  5.8238e-02  3.1201e-02  9.9261e-01  4.9364e-01  0:07:19  174

 absolute pressure limited to 5.000000e+10 in 421204 cells on zone 1386 

 turbulent viscosity limited to viscosity ratio of 1.000000e+05 in 416988 cells 
   327  1.0331e+09  1.4298e-02  5.0532e-02  5.7155e-02  3.2828e-02  9.9176e-01  4.9337e-01  0:07:14  173

 absolute pressure limited to 5.000000e+10 in 421203 cells on zone 1386 

 turbulent viscosity limited to viscosity ratio of 1.000000e+05 in 417083 cells 
   328  1.1004e+09  1.4482e-02  5.2371e-02  5.7140e-02  3.0701e-02  9.9459e-01  4.9489e-01  0:07:09  172

 absolute pressure limited to 5.000000e+10 in 421210 cells on zone 1386 

 turbulent viscosity limited to viscosity ratio of 1.000000e+05 in 417092 cells 
   329  1.1195e+09  1.3472e-02  4.9768e-02  5.0967e-02  2.9603e-02  9.9201e-01  4.9284e-01  0:07:10  171

 absolute pressure limited to 5.000000e+10 in 421218 cells on zone 1386 

 turbulent viscosity limited to viscosity ratio of 1.000000e+05 in 417164 cells 
   330  1.1179e+09  1.3499e-02  5.0589e-02  4.7552e-02  3.0041e-02  9.9152e-01  4.9316e-01  0:07:05  170

 absolute pressure limited to 5.000000e+10 in 421200 cells on zone 1386 

 turbulent viscosity limited to viscosity ratio of 1.000000e+05 in 417101 cells 

  iter  continuity  x-velocity  y-velocity  z-velocity      energy           k       omega     time/iter
   331  1.1022e+09  1.3834e-02  5.2608e-02  4.8033e-02  2.9268e-02  9.8318e-01  4.8990e-01  0:07:02  169

 absolute pressure limited to 5.000000e+10 in 421182 cells on zone 1386 

 turbulent viscosity limited to viscosity ratio of 1.000000e+05 in 417210 cells 
   332  1.0647e+09  1.3882e-02  5.1874e-02  4.8505e-02  2.9347e-02  9.7538e-01  4.8495e-01  0:06:56  168

 absolute pressure limited to 5.000000e+10 in 421203 cells on zone 1386 

 turbulent viscosity limited to viscosity ratio of 1.000000e+05 in 417171 cells 
   333  1.0445e+09  1.4182e-02  5.1232e-02  4.9414e-02  2.9362e-02  9.7388e-01  4.8011e-01  0:06:53  167

 absolute pressure limited to 5.000000e+10 in 421210 cells on zone 1386 

 turbulent viscosity limited to viscosity ratio of 1.000000e+05 in 417176 cells 
   334  1.0824e+09  1.3969e-02  5.0198e-02  5.0709e-02  2.8946e-02  9.9302e-01  4.9096e-01  0:06:47  166

 absolute pressure limited to 5.000000e+10 in 421201 cells on zone 1386 

 turbulent viscosity limited to viscosity ratio of 1.000000e+05 in 417357 cells 
   335  1.0843e+09  1.3577e-02  4.9203e-02  5.0776e-02  3.1550e-02  9.9702e-01  4.9648e-01  0:06:44  165

 absolute pressure limited to 5.000000e+10 in 421195 cells on zone 1386 

 turbulent viscosity limited to viscosity ratio of 1.000000e+05 in 417395 cells 
   336  1.0475e+09  1.3608e-02  5.1296e-02  5.0736e-02  3.3557e-02  9.9955e-01  4.9969e-01  0:06:41  164

 absolute pressure limited to 5.000000e+10 in 421206 cells on zone 1386 

 turbulent viscosity limited to viscosity ratio of 1.000000e+05 in 417422 cells 
   337  1.0299e+09  1.4519e-02  5.2360e-02  5.0780e-02  3.0972e-02  9.9734e-01  4.9919e-01  0:06:38  163

 absolute pressure limited to 5.000000e+10 in 421193 cells on zone 1386 

 turbulent viscosity limited to viscosity ratio of 1.000000e+05 in 417481 cells 
   338  1.0126e+09  1.3970e-02  4.8942e-02  5.0615e-02  3.0855e-02  9.8740e-01  4.9821e-01  0:06:41  162

 absolute pressure limited to 5.000000e+10 in 421203 cells on zone 1386 

 turbulent viscosity limited to viscosity ratio of 1.000000e+05 in 417366 cells 
   339  9.9968e+08  1.3766e-02  4.8883e-02  4.9622e-02  3.2294e-02  9.7253e-01  4.9601e-01  0:06:45  161

 absolute pressure limited to 5.000000e+10 in 421228 cells on zone 1386 

 turbulent viscosity limited to viscosity ratio of 1.000000e+05 in 417302 cells 
   340  1.0279e+09  1.4038e-02  5.0066e-02  5.0107e-02  3.1855e-02  9.6613e-01  4.9183e-01  0:06:38  160

 absolute pressure limited to 5.000000e+10 in 421207 cells on zone 1386 

 turbulent viscosity limited to viscosity ratio of 1.000000e+05 in 417133 cells 
   341  1.0039e+09  1.4155e-02  5.1362e-02  5.0853e-02  3.1955e-02  9.9121e-01  4.9232e-01  0:06:32  159

 absolute pressure limited to 5.000000e+10 in 421203 cells on zone 1386 

 turbulent viscosity limited to viscosity ratio of 1.000000e+05 in 417267 cells 

  iter  continuity  x-velocity  y-velocity  z-velocity      energy           k       omega     time/iter
   342  9.6890e+08  1.4783e-02  5.2715e-02  5.2250e-02  3.3563e-02  9.9217e-01  4.9271e-01  0:06:26  158

 absolute pressure limited to 5.000000e+10 in 421196 cells on zone 1386 

 turbulent viscosity limited to viscosity ratio of 1.000000e+05 in 417216 cells 
   343  1.0126e+09  1.6114e-02  5.2134e-02  5.2201e-02  3.3723e-02  9.8587e-01  4.9080e-01  0:06:23  157

 absolute pressure limited to 5.000000e+10 in 421187 cells on zone 1386 

 turbulent viscosity limited to viscosity ratio of 1.000000e+05 in 417050 cells 
   344  1.0053e+09  1.5257e-02  5.3862e-02  5.3421e-02  3.4158e-02  9.8499e-01  4.8883e-01  0:06:19  156

 absolute pressure limited to 5.000000e+10 in 421195 cells on zone 1386 

 turbulent viscosity limited to viscosity ratio of 1.000000e+05 in 416880 cells 
   345  1.0216e+09  1.5567e-02  5.4519e-02  5.4946e-02  3.4395e-02  9.8921e-01  4.9228e-01  0:06:15  155

 absolute pressure limited to 5.000000e+10 in 421201 cells on zone 1386 

 turbulent viscosity limited to viscosity ratio of 1.000000e+05 in 416638 cells 
   346  1.0619e+09  1.4693e-02  5.3589e-02  5.5289e-02  3.3831e-02  9.9661e-01  4.9596e-01  0:06:13  154

 absolute pressure limited to 5.000000e+10 in 421212 cells on zone 1386 

 turbulent viscosity limited to viscosity ratio of 1.000000e+05 in 416477 cells 
   347  1.0976e+09  1.4240e-02  5.3033e-02  5.5245e-02  3.2313e-02  9.9374e-01  4.9420e-01  0:06:18  153

 absolute pressure limited to 5.000000e+10 in 421205 cells on zone 1386 

 turbulent viscosity limited to viscosity ratio of 1.000000e+05 in 416176 cells 
   348  1.1278e+09  1.4079e-02  5.1437e-02  5.1961e-02  3.1875e-02  9.9608e-01  4.9601e-01  0:06:13  152

 absolute pressure limited to 5.000000e+10 in 421205 cells on zone 1386 

 turbulent viscosity limited to viscosity ratio of 1.000000e+05 in 416257 cells 
   349  1.1293e+09  1.3325e-02  5.0367e-02  5.0889e-02  3.3590e-02  9.8591e-01  4.9168e-01  0:06:11  151

 absolute pressure limited to 5.000000e+10 in 421216 cells on zone 1386 

 turbulent viscosity limited to viscosity ratio of 1.000000e+05 in 415976 cells 
   350  1.2331e+09  1.3409e-02  5.1061e-02  5.1350e-02  3.0598e-02  9.7030e-01  4.8525e-01  0:06:08  150

 absolute pressure limited to 5.000000e+10 in 421204 cells on zone 1386 

 turbulent viscosity limited to viscosity ratio of 1.000000e+05 in 415734 cells 
   351  1.2413e+09  1.3118e-02  5.0168e-02  4.9232e-02  2.9721e-02  9.8510e-01  4.8636e-01  0:06:04  149

 absolute pressure limited to 5.000000e+10 in 421198 cells on zone 1386 

 turbulent viscosity limited to viscosity ratio of 1.000000e+05 in 415429 cells 
   352  1.1880e+09  1.2358e-02  4.7971e-02  4.8255e-02  3.0303e-02  9.6917e-01  4.7900e-01  0:06:01  148

 absolute pressure limited to 5.000000e+10 in 421196 cells on zone 1386 

 turbulent viscosity limited to viscosity ratio of 1.000000e+05 in 415429 cells 

  iter  continuity  x-velocity  y-velocity  z-velocity      energy           k       omega     time/iter
   353  1.2196e+09  1.2968e-02  4.8080e-02  4.9524e-02  3.2131e-02  9.6248e-01  4.7642e-01  0:05:57  147

 absolute pressure limited to 5.000000e+10 in 421199 cells on zone 1386 

 turbulent viscosity limited to viscosity ratio of 1.000000e+05 in 415352 cells 
   354  1.2900e+09  1.3550e-02  5.0610e-02  5.0920e-02  2.9013e-02  9.9206e-01  4.9109e-01  0:05:52  146

 absolute pressure limited to 5.000000e+10 in 421196 cells on zone 1386 

 turbulent viscosity limited to viscosity ratio of 1.000000e+05 in 415100 cells 
   355  1.2287e+09  1.3616e-02  5.0520e-02  4.8332e-02  3.0643e-02  9.8138e-01  4.8624e-01  0:05:53  145

 absolute pressure limited to 5.000000e+10 in 421194 cells on zone 1386 

 turbulent viscosity limited to viscosity ratio of 1.000000e+05 in 414864 cells 
   356  1.2571e+09  1.3557e-02  4.9829e-02  5.0251e-02  3.0776e-02  9.8782e-01  4.9026e-01  0:05:49  144

 absolute pressure limited to 5.000000e+10 in 421234 cells on zone 1386 

 turbulent viscosity limited to viscosity ratio of 1.000000e+05 in 414957 cells 
   357  1.4179e+09  1.2828e-02  4.9607e-02  5.0513e-02  2.9557e-02  9.9414e-01  4.9412e-01  0:05:46  143

 absolute pressure limited to 5.000000e+10 in 421190 cells on zone 1386 

 turbulent viscosity limited to viscosity ratio of 1.000000e+05 in 414894 cells 
   358  1.3735e+09  1.2075e-02  4.7587e-02  4.8715e-02  3.0575e-02  9.9007e-01  4.9201e-01  0:05:44  142

 absolute pressure limited to 5.000000e+10 in 421201 cells on zone 1386 

 turbulent viscosity limited to viscosity ratio of 1.000000e+05 in 415412 cells 
   359  1.3665e+09  1.1990e-02  4.7025e-02  4.8913e-02  3.2934e-02  9.7475e-01  4.8550e-01  0:05:42  141

 absolute pressure limited to 5.000000e+10 in 421211 cells on zone 1386 

 turbulent viscosity limited to viscosity ratio of 1.000000e+05 in 415969 cells 
   360  1.4778e+09  1.2485e-02  4.8597e-02  4.6444e-02  3.2261e-02  9.8752e-01  4.8740e-01  0:05:39  140

 absolute pressure limited to 5.000000e+10 in 421216 cells on zone 1386 

 turbulent viscosity limited to viscosity ratio of 1.000000e+05 in 415344 cells 
   361  1.4937e+09  1.2379e-02  5.1709e-02  4.6674e-02  3.3241e-02  9.6026e-01  4.7460e-01  0:05:37  139

 absolute pressure limited to 5.000000e+10 in 421217 cells on zone 1386 

 turbulent viscosity limited to viscosity ratio of 1.000000e+05 in 415103 cells 
   362  1.5859e+09  1.2781e-02  5.3327e-02  4.7039e-02  2.8964e-02  9.9147e-01  4.9206e-01  0:05:33  138

 absolute pressure limited to 5.000000e+10 in 421206 cells on zone 1386 

 turbulent viscosity limited to viscosity ratio of 1.000000e+05 in 415566 cells 
   363  1.6589e+09  1.2212e-02  5.2236e-02  4.4871e-02  2.7037e-02  9.8487e-01  4.9018e-01  0:05:30  137

 absolute pressure limited to 5.000000e+10 in 421209 cells on zone 1386 

 turbulent viscosity limited to viscosity ratio of 1.000000e+05 in 415542 cells 

  iter  continuity  x-velocity  y-velocity  z-velocity      energy           k       omega     time/iter
   364  1.7222e+09  1.2135e-02  5.0248e-02  4.3180e-02  2.7637e-02  9.9144e-01  4.9020e-01  0:05:27  136

 absolute pressure limited to 5.000000e+10 in 421197 cells on zone 1386 

 turbulent viscosity limited to viscosity ratio of 1.000000e+05 in 416971 cells 
   365  1.6511e+09  1.2205e-02  4.9484e-02  4.5264e-02  2.8330e-02  9.9586e-01  4.9456e-01  0:05:24  135

 absolute pressure limited to 5.000000e+10 in 421208 cells on zone 1386 

 turbulent viscosity limited to viscosity ratio of 1.000000e+05 in 416569 cells 
   366  1.7876e+09  1.1880e-02  5.0280e-02  4.3144e-02  3.1156e-02  9.9915e-01  4.9901e-01  0:05:22  134

 absolute pressure limited to 5.000000e+10 in 421202 cells on zone 1386 

 turbulent viscosity limited to viscosity ratio of 1.000000e+05 in 416971 cells 
   367  1.7058e+09  1.2515e-02  4.9769e-02  4.5000e-02  3.1204e-02  9.9706e-01  4.9844e-01  0:05:20  133

 absolute pressure limited to 5.000000e+10 in 421212 cells on zone 1386 

 turbulent viscosity limited to viscosity ratio of 1.000000e+05 in 416991 cells 
   368  1.7733e+09  1.2159e-02  5.0671e-02  4.8218e-02  3.0647e-02  9.9567e-01  4.9791e-01  0:05:18  132

 absolute pressure limited to 5.000000e+10 in 421194 cells on zone 1386 

 turbulent viscosity limited to viscosity ratio of 1.000000e+05 in 416904 cells 
   369  2.1990e+09  1.1449e-02  4.8295e-02  5.0443e-02  3.2171e-02  9.9387e-01  4.9522e-01  0:05:16  131

 absolute pressure limited to 5.000000e+10 in 421201 cells on zone 1386 

 turbulent viscosity limited to viscosity ratio of 1.000000e+05 in 416993 cells 
   370  2.2858e+09  1.1080e-02  4.8688e-02  5.2989e-02  3.0091e-02  9.7644e-01  4.8872e-01  0:05:22  130

 absolute pressure limited to 5.000000e+10 in 421211 cells on zone 1386 

 turbulent viscosity limited to viscosity ratio of 1.000000e+05 in 416885 cells 
   371  2.3500e+09  1.0815e-02  4.7026e-02  4.9900e-02  2.9878e-02  9.8879e-01  4.8795e-01  0:05:18  129

 absolute pressure limited to 5.000000e+10 in 421187 cells on zone 1386 

 turbulent viscosity limited to viscosity ratio of 1.000000e+05 in 416781 cells 
   372  2.4780e+09  1.0851e-02  4.7963e-02  4.7716e-02  2.9631e-02  9.6851e-01  4.7899e-01  0:05:14  128

 absolute pressure limited to 5.000000e+10 in 421204 cells on zone 1386 

 turbulent viscosity limited to viscosity ratio of 1.000000e+05 in 416811 cells 
   373  2.5608e+09  1.0617e-02  4.7241e-02  4.5575e-02  2.9352e-02  9.8924e-01  4.8182e-01  0:05:11  127

 absolute pressure limited to 5.000000e+10 in 421194 cells on zone 1386 

 turbulent viscosity limited to viscosity ratio of 1.000000e+05 in 416502 cells 
   374  2.6991e+09  1.0750e-02  4.7110e-02  4.2468e-02  2.8799e-02  9.9816e-01  4.9735e-01  0:05:08  126

 absolute pressure limited to 5.000000e+10 in 421182 cells on zone 1386 

 turbulent viscosity limited to viscosity ratio of 1.000000e+05 in 416266 cells 

  iter  continuity  x-velocity  y-velocity  z-velocity      energy           k       omega     time/iter
   375  2.6814e+09  1.0468e-02  4.5543e-02  4.0952e-02  3.0258e-02  9.9863e-01  4.9848e-01  0:05:05  125

 absolute pressure limited to 5.000000e+10 in 421195 cells on zone 1386 

 turbulent viscosity limited to viscosity ratio of 1.000000e+05 in 416500 cells 
   376  2.4093e+09  1.0660e-02  4.7022e-02  4.2946e-02  3.3132e-02  9.9296e-01  4.9625e-01  0:05:01  124

 absolute pressure limited to 5.000000e+10 in 421195 cells on zone 1386 

 turbulent viscosity limited to viscosity ratio of 1.000000e+05 in 416490 cells 
   377  2.9092e+09  1.1200e-02  4.9184e-02  4.1608e-02  3.0476e-02  9.7757e-01  4.9076e-01  0:04:57  123

 absolute pressure limited to 5.000000e+10 in 421196 cells on zone 1386 

 turbulent viscosity limited to viscosity ratio of 1.000000e+05 in 416780 cells 
   378  3.3149e+09  1.0869e-02  5.0942e-02  4.3298e-02  3.0601e-02  9.7921e-01  4.8886e-01  0:04:54  122

 absolute pressure limited to 5.000000e+10 in 421197 cells on zone 1386 

 turbulent viscosity limited to viscosity ratio of 1.000000e+05 in 416741 cells 
   379  3.1912e+09  1.1120e-02  5.2400e-02  4.1092e-02  2.9251e-02  9.8471e-01  4.8636e-01  0:05:01  121

 absolute pressure limited to 5.000000e+10 in 421186 cells on zone 1386 

 turbulent viscosity limited to viscosity ratio of 1.000000e+05 in 416644 cells 
   380  3.3834e+09  1.0795e-02  4.9906e-02  4.0852e-02  2.8865e-02  9.9563e-01  4.9453e-01  0:04:56  120

 absolute pressure limited to 5.000000e+10 in 421204 cells on zone 1386 

 turbulent viscosity limited to viscosity ratio of 1.000000e+05 in 416407 cells 
   381  3.6489e+09  1.0607e-02  4.9245e-02  4.5059e-02  2.6021e-02  9.9638e-01  4.9609e-01  0:05:00  119

 absolute pressure limited to 5.000000e+10 in 421195 cells on zone 1386 

 turbulent viscosity limited to viscosity ratio of 1.000000e+05 in 416516 cells 
   382  4.0703e+09  1.0421e-02  4.9268e-02  4.1810e-02  2.6324e-02  9.8498e-01  4.8852e-01  0:04:55  118

 absolute pressure limited to 5.000000e+10 in 421188 cells on zone 1386 

 turbulent viscosity limited to viscosity ratio of 1.000000e+05 in 416643 cells 
   383  4.1243e+09  1.0041e-02  4.9200e-02  3.8511e-02  2.6495e-02  9.5672e-01  4.7309e-01  0:04:50  117

 absolute pressure limited to 5.000000e+10 in 421183 cells on zone 1386 

 turbulent viscosity limited to viscosity ratio of 1.000000e+05 in 416662 cells 
   384  3.8409e+09  9.4578e-03  4.6260e-02  3.7530e-02  3.0709e-02  9.8959e-01  4.8606e-01  0:04:46  116

 absolute pressure limited to 5.000000e+10 in 421183 cells on zone 1386 

 turbulent viscosity limited to viscosity ratio of 1.000000e+05 in 416759 cells 
   385  4.2268e+09  9.3063e-03  4.5232e-02  4.4315e-02  3.0500e-02  9.9008e-01  4.9216e-01  0:04:43  115

 absolute pressure limited to 5.000000e+10 in 421189 cells on zone 1386 

 turbulent viscosity limited to viscosity ratio of 1.000000e+05 in 416776 cells 

  iter  continuity  x-velocity  y-velocity  z-velocity      energy           k       omega     time/iter
   386  4.9290e+09  1.0010e-02  4.7213e-02  4.2556e-02  2.6740e-02  9.7712e-01  4.8772e-01  0:04:40  114

 absolute pressure limited to 5.000000e+10 in 421186 cells on zone 1386 

 turbulent viscosity limited to viscosity ratio of 1.000000e+05 in 416469 cells 
   387  4.5569e+09  9.6025e-03  4.7296e-02  4.2614e-02  2.8902e-02  9.9883e-01  4.9739e-01  0:04:36  113

 absolute pressure limited to 5.000000e+10 in 421184 cells on zone 1386 

 turbulent viscosity limited to viscosity ratio of 1.000000e+05 in 416243 cells 
   388  4.7189e+09  1.0439e-02  5.1257e-02  3.7348e-02  2.7409e-02  9.9523e-01  4.9554e-01  0:04:33  112

 absolute pressure limited to 5.000000e+10 in 421177 cells on zone 1386 

 turbulent viscosity limited to viscosity ratio of 1.000000e+05 in 416539 cells 
   389  4.4053e+09  1.0803e-02  5.4427e-02  3.5706e-02  2.5699e-02  9.9510e-01  4.9345e-01  0:04:29  111

 absolute pressure limited to 5.000000e+10 in 421181 cells on zone 1386 

 turbulent viscosity limited to viscosity ratio of 1.000000e+05 in 416747 cells 
   390  4.5538e+09  9.7834e-03  4.7400e-02  3.1032e-02  3.1109e-02  9.8021e-01  4.8713e-01  0:04:26  110

 absolute pressure limited to 5.000000e+10 in 421168 cells on zone 1386 

 turbulent viscosity limited to viscosity ratio of 1.000000e+05 in 416451 cells 
   391  4.6717e+09  9.0446e-03  4.4416e-02  3.5221e-02  3.2376e-02  9.8149e-01  4.8690e-01  0:04:22  109

 absolute pressure limited to 5.000000e+10 in 421185 cells on zone 1386 

 turbulent viscosity limited to viscosity ratio of 1.000000e+05 in 416587 cells 
   392  4.8539e+09  1.0253e-02  4.9944e-02  4.6691e-02  3.2469e-02  9.7678e-01  4.8873e-01  0:04:19  108

 absolute pressure limited to 5.000000e+10 in 421189 cells on zone 1386 

 turbulent viscosity limited to viscosity ratio of 1.000000e+05 in 416285 cells 
   393  5.7000e+09  1.1274e-02  5.5862e-02  5.0547e-02  2.8080e-02  9.9440e-01  4.9201e-01  0:04:18  107

 absolute pressure limited to 5.000000e+10 in 421183 cells on zone 1386 

 turbulent viscosity limited to viscosity ratio of 1.000000e+05 in 416377 cells 
   394  6.6040e+09  1.1252e-02  5.6533e-02  4.8152e-02  2.6256e-02  9.8293e-01  4.7737e-01  0:04:17  106

 absolute pressure limited to 5.000000e+10 in 421175 cells on zone 1386 

 turbulent viscosity limited to viscosity ratio of 1.000000e+05 in 416162 cells 
   395  6.3390e+09  1.0531e-02  5.3969e-02  4.5757e-02  2.7647e-02  9.8410e-01  4.7389e-01  0:04:15  105

 absolute pressure limited to 5.000000e+10 in 421173 cells on zone 1386 

 turbulent viscosity limited to viscosity ratio of 1.000000e+05 in 416274 cells 
   396  6.2439e+09  1.1034e-02  5.7310e-02  3.9401e-02  2.6732e-02  9.9014e-01  4.8284e-01  0:04:13  104

 absolute pressure limited to 5.000000e+10 in 421184 cells on zone 1386 

 turbulent viscosity limited to viscosity ratio of 1.000000e+05 in 415892 cells 

  iter  continuity  x-velocity  y-velocity  z-velocity      energy           k       omega     time/iter
   397  7.0251e+09  1.1706e-02  5.9595e-02  3.8542e-02  2.7351e-02  9.7273e-01  4.7661e-01  0:04:11  103

 absolute pressure limited to 5.000000e+10 in 421171 cells on zone 1386 

 turbulent viscosity limited to viscosity ratio of 1.000000e+05 in 416183 cells 
   398  7.5962e+09  1.1109e-02  5.6611e-02  4.0227e-02  2.6022e-02  9.3757e-01  4.4837e-01  0:04:07  102

 absolute pressure limited to 5.000000e+10 in 421171 cells on zone 1386 

 turbulent viscosity limited to viscosity ratio of 1.000000e+05 in 416108 cells 
   399  7.1602e+09  1.1810e-02  6.1151e-02  3.4089e-02  2.5318e-02  9.9868e-01  4.9696e-01  0:04:03  101

 absolute pressure limited to 5.000000e+10 in 421204 cells on zone 1386 

 turbulent viscosity limited to viscosity ratio of 1.000000e+05 in 416317 cells 
   400  7.2270e+09  1.1641e-02  5.9397e-02  3.9396e-02  2.9364e-02  9.9401e-01  4.9409e-01  0:04:00  100

[...]

  iter  continuity  x-velocity  y-velocity  z-velocity      energy           k       omega     time/iter
   430  7.3970e+09  1.0870e-02  5.2558e-02  3.3642e-02  2.4975e-02  1.0024e+00  4.9924e-01  0:02:48   70

 absolute pressure limited to 5.000000e+10 in 421136 cells on zone 1386 

 turbulent viscosity limited to viscosity ratio of 1.000000e+05 in 414685 cells 
   431  7.3713e+09  9.9663e-03  4.9778e-02  3.2307e-02  2.2796e-02  9.9706e-01  4.8623e-01  0:02:44   69

 absolute pressure limited to 5.000000e+10 in 421135 cells on zone 1386 

 turbulent viscosity limited to viscosity ratio of 1.000000e+05 in 414712 cells 
   432  4.6807e+09  1.0412e-02  5.0835e-02  3.3873e-02  2.6267e-02  9.9661e-01  4.8667e-01  0:02:40   68

 absolute pressure limited to 5.000000e+10 in 421160 cells on zone 1386 

 turbulent viscosity limited to viscosity ratio of 1.000000e+05 in 414969 cells 
   433  5.9770e+09  1.0698e-02  4.9998e-02  2.8693e-02  2.4037e-02  9.8903e-01  4.6728e-01  0:02:36   67

 absolute pressure limited to 5.000000e+10 in 421146 cells on zone 1386 

 turbulent viscosity limited to viscosity ratio of 1.000000e+05 in 414609 cells 
   434  5.8123e+09  1.0114e-02  4.8657e-02  3.2837e-02  2.5262e-02  1.0150e+00  4.9084e-01  0:02:32   66

 absolute pressure limited to 5.000000e+10 in 421150 cells on zone 1386 

 turbulent viscosity limited to viscosity ratio of 1.000000e+05 in 414579 cells 
   435  3.4892e+09  1.0361e-02  4.9041e-02  3.3302e-02  2.9815e-02  9.9861e-01  4.8910e-01  0:02:30   65

 absolute pressure limited to 5.000000e+10 in 421156 cells on zone 1386 

 turbulent viscosity limited to viscosity ratio of 1.000000e+05 in 414783 cells 
   436  5.7622e+09  1.0688e-02  4.6447e-02  3.7219e-02  2.6581e-02  1.0278e+00  5.0274e-01  0:02:28   64

 absolute pressure limited to 5.000000e+10 in 421124 cells on zone 1386 

 turbulent viscosity limited to viscosity ratio of 1.000000e+05 in 414489 cells 
   437  5.0449e+09  1.1122e-02  5.4890e-02  4.0697e-02  2.6433e-02  1.0084e+00  4.9184e-01  0:02:27   63

 absolute pressure limited to 5.000000e+10 in 421177 cells on zone 1386 

 turbulent viscosity limited to viscosity ratio of 1.000000e+05 in 414717 cells 
   438  3.6015e+09  1.1920e-02  5.7639e-02  3.6724e-02  2.9403e-02  9.9826e-01  4.8729e-01  0:02:25   62

 absolute pressure limited to 5.000000e+10 in 421158 cells on zone 1386 

 turbulent viscosity limited to viscosity ratio of 1.000000e+05 in 414412 cells 
   439  5.5137e+09  1.2511e-02  5.6566e-02  3.7100e-02  2.5359e-02  1.0310e+00  4.9700e-01  0:02:24   61

 absolute pressure limited to 5.000000e+10 in 421137 cells on zone 1386 

 turbulent viscosity limited to viscosity ratio of 1.000000e+05 in 414272 cells 
   440  5.0104e+09  1.1388e-02  5.4871e-02  3.6105e-02  2.3020e-02  1.0155e+00  4.9943e-01  0:02:23   60

 absolute pressure limited to 5.000000e+10 in 421150 cells on zone 1386 

 turbulent viscosity limited to viscosity ratio of 1.000000e+05 in 414516 cells 

  iter  continuity  x-velocity  y-velocity  z-velocity      energy           k       omega     time/iter
   441  3.7275e+09  1.0337e-02  4.8040e-02  3.1307e-02  2.5824e-02  1.0063e+00  4.8669e-01  0:02:22   59

 absolute pressure limited to 5.000000e+10 in 421155 cells on zone 1386 

 turbulent viscosity limited to viscosity ratio of 1.000000e+05 in 414708 cells 
   442  3.8005e+09  1.1218e-02  5.0830e-02  3.1156e-02  2.7292e-02  1.0599e+00  5.2365e-01  0:02:20   58

 absolute pressure limited to 5.000000e+10 in 421176 cells on zone 1386 

 turbulent viscosity limited to viscosity ratio of 1.000000e+05 in 414208 cells 
   443  4.6296e+09  1.0991e-02  4.9236e-02  3.0445e-02  2.4706e-02  1.0117e+00  5.0590e-01  0:02:17   57
 temperature limited to 5.000000e+03 in 1 cells on zone 1386 in domain 1
 
 absolute pressure limited to 5.000000e+10 in 421150 cells on zone 1386 

 turbulent viscosity limited to viscosity ratio of 1.000000e+05 in 414420 cells 
   444  3.4197e+09  1.0974e-02  5.1736e-02  3.7036e-02  2.7117e-02  1.0004e+00  4.9840e-01  0:02:14   56
 temperature limited to 5.000000e+03 in 2 cells on zone 1386 in domain 1
 
 absolute pressure limited to 5.000000e+10 in 421165 cells on zone 1386 

 turbulent viscosity limited to viscosity ratio of 1.000000e+05 in 414414 cells 
   445  3.5912e+09  1.1241e-02  5.0778e-02  4.4945e-02  2.8430e-02  1.0018e+00  4.9575e-01  0:02:13   55
 temperature limited to 5.000000e+03 in 6 cells on zone 1386 in domain 1
 
 absolute pressure limited to 5.000000e+10 in 421150 cells on zone 1386 

 turbulent viscosity limited to viscosity ratio of 1.000000e+05 in 413867 cells 
   446  5.2135e+09  1.0972e-02  4.9863e-02  4.4290e-02  2.3577e-02  1.0099e+00  4.9659e-01  0:02:15   54

 absolute pressure limited to 5.000000e+10 in 421171 cells on zone 1386 

 turbulent viscosity limited to viscosity ratio of 1.000000e+05 in 414110 cells 
   447  3.5002e+09  1.1582e-02  5.5700e-02  4.2377e-02  2.5801e-02  1.0041e+00  4.9844e-01  0:02:17   53
 temperature limited to 5.000000e+03 in 5 cells on zone 1386 in domain 1
 
 absolute pressure limited to 5.000000e+10 in 421177 cells on zone 1386 

 turbulent viscosity limited to viscosity ratio of 1.000000e+05 in 414841 cells 
   448  2.7001e+09  1.1428e-02  4.9871e-02  3.3840e-02  3.1396e-02  1.0019e+00  4.9736e-01  0:02:16   52
 temperature limited to 5.000000e+03 in 7 cells on zone 1386 in domain 1
 
 absolute pressure limited to 5.000000e+10 in 421156 cells on zone 1386 

 turbulent viscosity limited to viscosity ratio of 1.000000e+05 in 414335 cells 
   449  4.3325e+09  1.1200e-02  4.9551e-02  3.5048e-02  2.4460e-02  1.0023e+00  4.9749e-01  0:02:15   51

 absolute pressure limited to 5.000000e+10 in 421150 cells on zone 1386 

 turbulent viscosity limited to viscosity ratio of 1.000000e+05 in 414838 cells 
   450  2.8308e+09  1.1254e-02  5.3459e-02  4.4218e-02  3.0528e-02  1.0106e+00  5.0053e-01  0:02:14   50

 absolute pressure limited to 5.000000e+10 in 421180 cells on zone 1386 

 turbulent viscosity limited to viscosity ratio of 1.000000e+05 in 415098 cells 
   451  2.9847e+09  1.2099e-02  5.5133e-02  4.5479e-02  2.9676e-02  1.0067e+00  4.8799e-01  0:02:12   49

 absolute pressure limited to 5.000000e+10 in 421165 cells on zone 1386 

 turbulent viscosity limited to viscosity ratio of 1.000000e+05 in 414865 cells 

  iter  continuity  x-velocity  y-velocity  z-velocity      energy           k       omega     time/iter
   452  4.3968e+09  1.2427e-02  5.8260e-02  3.8449e-02  2.5451e-02  1.0200e+00  4.9607e-01  0:02:09   48

 absolute pressure limited to 5.000000e+10 in 421175 cells on zone 1386 

 turbulent viscosity limited to viscosity ratio of 1.000000e+05 in 415117 cells 
   453  2.6436e+09  1.2765e-02  6.3035e-02  3.9587e-02  2.9786e-02  1.0040e+00  4.9676e-01  0:02:18   47

 absolute pressure limited to 5.000000e+10 in 421179 cells on zone 1386 

 turbulent viscosity limited to viscosity ratio of 1.000000e+05 in 415072 cells 
   454  2.7585e+09  1.2681e-02  5.6350e-02  3.1954e-02  2.9535e-02  1.0065e+00  4.9671e-01  0:02:10   46

 absolute pressure limited to 5.000000e+10 in 421175 cells on zone 1386 

 turbulent viscosity limited to viscosity ratio of 1.000000e+05 in 414903 cells 
   455  3.5379e+09  1.1469e-02  5.2623e-02  3.3042e-02  2.7516e-02  1.0013e+00  4.9436e-01  0:02:03   45

 absolute pressure limited to 5.000000e+10 in 421174 cells on zone 1386 

 turbulent viscosity limited to viscosity ratio of 1.000000e+05 in 415359 cells 
   456  2.5760e+09  1.1077e-02  5.2606e-02  3.8463e-02  2.9816e-02  1.0008e+00  4.8801e-01  0:01:57   44

 absolute pressure limited to 5.000000e+10 in 421168 cells on zone 1386 

 turbulent viscosity limited to viscosity ratio of 1.000000e+05 in 415503 cells 
   457  2.2665e+09  1.1979e-02  5.2510e-02  3.0445e-02  3.0728e-02  1.0101e+00  4.9638e-01  0:01:52   43

 absolute pressure limited to 5.000000e+10 in 421175 cells on zone 1386 

 turbulent viscosity limited to viscosity ratio of 1.000000e+05 in 415351 cells 
   458  3.0008e+09  1.1869e-02  5.2870e-02  3.1828e-02  2.8580e-02  1.0068e+00  4.8322e-01  0:01:47   42

 absolute pressure limited to 5.000000e+10 in 421186 cells on zone 1386 

 turbulent viscosity limited to viscosity ratio of 1.000000e+05 in 415493 cells 
   459  2.4436e+09  1.2364e-02  5.8233e-02  3.4989e-02  2.9494e-02  1.0059e+00  4.9241e-01  0:01:44   41

 absolute pressure limited to 5.000000e+10 in 421180 cells on zone 1386 

 turbulent viscosity limited to viscosity ratio of 1.000000e+05 in 415336 cells 
   460  2.5371e+09  1.2376e-02  5.7088e-02  3.5375e-02  2.7406e-02  1.0017e+00  4.9871e-01  0:01:40   40

 absolute pressure limited to 5.000000e+10 in 421188 cells on zone 1386 

 turbulent viscosity limited to viscosity ratio of 1.000000e+05 in 415525 cells 
   461  3.0688e+09  1.0436e-02  4.6694e-02  3.4078e-02  2.4740e-02  1.0009e+00  4.9191e-01  0:01:37   39

 absolute pressure limited to 5.000000e+10 in 421180 cells on zone 1386 

 turbulent viscosity limited to viscosity ratio of 1.000000e+05 in 415965 cells 
   462  2.5452e+09  1.0566e-02  4.8693e-02  3.3134e-02  2.7782e-02  9.9543e-01  4.8433e-01  0:01:34   38

 absolute pressure limited to 5.000000e+10 in 421180 cells on zone 1386 

 turbulent viscosity limited to viscosity ratio of 1.000000e+05 in 415756 cells 

  iter  continuity  x-velocity  y-velocity  z-velocity      energy           k       omega     time/iter
   463  2.2512e+09  1.1767e-02  5.1114e-02  3.3427e-02  2.7239e-02  1.0056e+00  4.8171e-01  0:01:31   37

 absolute pressure limited to 5.000000e+10 in 421202 cells on zone 1386 

 turbulent viscosity limited to viscosity ratio of 1.000000e+05 in 415968 cells 
   464  2.5742e+09  1.0882e-02  4.6017e-02  3.4702e-02  2.7230e-02  1.0112e+00  4.9039e-01  0:01:28   36

 absolute pressure limited to 5.000000e+10 in 421186 cells on zone 1386 

 turbulent viscosity limited to viscosity ratio of 1.000000e+05 in 415999 cells 
   465  2.7024e+09  1.1671e-02  5.2132e-02  3.1604e-02  2.5094e-02  9.9903e-01  4.8266e-01  0:01:25   35

 absolute pressure limited to 5.000000e+10 in 421204 cells on zone 1386 

 turbulent viscosity limited to viscosity ratio of 1.000000e+05 in 415889 cells 
   466  2.3616e+09  1.2325e-02  5.6998e-02  3.0446e-02  2.5205e-02  1.0009e+00  4.9545e-01  0:01:23   34

 absolute pressure limited to 5.000000e+10 in 421187 cells on zone 1386 

 turbulent viscosity limited to viscosity ratio of 1.000000e+05 in 415847 cells 
   467  2.1226e+09  1.1374e-02  5.1538e-02  2.8586e-02  2.9159e-02  1.0003e+00  4.9270e-01  0:01:20   33

 absolute pressure limited to 5.000000e+10 in 421201 cells on zone 1386 

 turbulent viscosity limited to viscosity ratio of 1.000000e+05 in 416374 cells 
   468  2.5064e+09  1.1590e-02  5.1364e-02  3.3229e-02  2.6445e-02  1.0063e+00  4.9805e-01  0:01:17   32

 absolute pressure limited to 5.000000e+10 in 421186 cells on zone 1386 

 turbulent viscosity limited to viscosity ratio of 1.000000e+05 in 416193 cells 
   469  2.6502e+09  1.0964e-02  4.8309e-02  3.7277e-02  2.6216e-02  9.9185e-01  4.8813e-01  0:01:15   31

 absolute pressure limited to 5.000000e+10 in 421190 cells on zone 1386 

 turbulent viscosity limited to viscosity ratio of 1.000000e+05 in 416200 cells 
   470  2.4088e+09  1.0950e-02  4.7692e-02  3.8048e-02  2.8563e-02  9.8839e-01  4.8249e-01  0:01:12   30

 absolute pressure limited to 5.000000e+10 in 421201 cells on zone 1386 

 turbulent viscosity limited to viscosity ratio of 1.000000e+05 in 416066 cells 
   471  2.7173e+09  1.0776e-02  4.7660e-02  3.7299e-02  2.6928e-02  9.9325e-01  4.8476e-01  0:01:09   29

 absolute pressure limited to 5.000000e+10 in 421191 cells on zone 1386 

 turbulent viscosity limited to viscosity ratio of 1.000000e+05 in 416199 cells 
   472  2.6360e+09  1.1118e-02  4.9920e-02  3.7564e-02  2.7676e-02  9.8918e-01  4.7344e-01  0:01:07   28

 absolute pressure limited to 5.000000e+10 in 421189 cells on zone 1386 

 turbulent viscosity limited to viscosity ratio of 1.000000e+05 in 416097 cells 
   473  2.6503e+09  1.0570e-02  4.8779e-02  3.7574e-02  2.7959e-02  9.9627e-01  4.9512e-01  0:01:05   27
 temperature limited to 5.000000e+03 in 7 cells on zone 1386 in domain 1
 
 absolute pressure limited to 5.000000e+10 in 421199 cells on zone 1386 

 turbulent viscosity limited to viscosity ratio of 1.000000e+05 in 416196 cells 

  iter  continuity  x-velocity  y-velocity  z-velocity      energy           k       omega     time/iter
   474  2.8911e+09  1.0861e-02  5.0832e-02  3.3603e-02  2.7804e-02  9.9080e-01  4.9720e-01  0:01:02   26

 absolute pressure limited to 5.000000e+10 in 421179 cells on zone 1386 

 turbulent viscosity limited to viscosity ratio of 1.000000e+05 in 416165 cells 
   475  2.7461e+09  1.0558e-02  4.9876e-02  3.5040e-02  2.9318e-02  9.9735e-01  4.9644e-01  0:01:00   25

 absolute pressure limited to 5.000000e+10 in 421196 cells on zone 1386 

 turbulent viscosity limited to viscosity ratio of 1.000000e+05 in 416506 cells 
   476  2.7515e+09  1.0734e-02  4.9756e-02  3.4857e-02  2.7638e-02  9.8658e-01  4.8994e-01  0:00:58   24

 absolute pressure limited to 5.000000e+10 in 421200 cells on zone 1386 

 turbulent viscosity limited to viscosity ratio of 1.000000e+05 in 416450 cells 
   477  2.9691e+09  1.0514e-02  4.8756e-02  3.7995e-02  3.0510e-02  9.5807e-01  4.7754e-01  0:00:55   23

 absolute pressure limited to 5.000000e+10 in 421181 cells on zone 1386 

 turbulent viscosity limited to viscosity ratio of 1.000000e+05 in 416652 cells 
   478  3.2174e+09  1.0535e-02  5.0448e-02  3.8228e-02  2.7756e-02  9.3875e-01  4.6129e-01  0:00:53   22

 absolute pressure limited to 5.000000e+10 in 421171 cells on zone 1386 

 turbulent viscosity limited to viscosity ratio of 1.000000e+05 in 416617 cells 
   479  2.8375e+09  1.0741e-02  5.1708e-02  3.5373e-02  2.9074e-02  9.7046e-01  4.6001e-01  0:00:50   21

 absolute pressure limited to 5.000000e+10 in 421185 cells on zone 1386 

 turbulent viscosity limited to viscosity ratio of 1.000000e+05 in 416877 cells 
   480  2.6833e+09  1.0516e-02  5.0103e-02  3.3692e-02  3.0432e-02  9.9613e-01  4.9035e-01  0:00:48   20

 absolute pressure limited to 5.000000e+10 in 421184 cells on zone 1386 

 turbulent viscosity limited to viscosity ratio of 1.000000e+05 in 416744 cells 
   481  2.8508e+09  1.0951e-02  5.0702e-02  3.3221e-02  2.8945e-02  9.8905e-01  4.8908e-01  0:00:45   19

 absolute pressure limited to 5.000000e+10 in 421195 cells on zone 1386 

 turbulent viscosity limited to viscosity ratio of 1.000000e+05 in 416608 cells 
   482  2.6010e+09  1.2132e-02  5.7216e-02  3.5070e-02  2.9867e-02  9.9851e-01  4.9797e-01  0:00:43   18

 absolute pressure limited to 5.000000e+10 in 421177 cells on zone 1386 

 turbulent viscosity limited to viscosity ratio of 1.000000e+05 in 416348 cells 
   483  2.7621e+09  1.1970e-02  5.4686e-02  4.1012e-02  2.9319e-02  9.9518e-01  4.9625e-01  0:00:41   17

 absolute pressure limited to 5.000000e+10 in 421175 cells on zone 1386 

 turbulent viscosity limited to viscosity ratio of 1.000000e+05 in 416439 cells 
   484  3.1300e+09  1.2386e-02  5.8278e-02  4.2541e-02  2.8306e-02  9.9246e-01  4.9863e-01  0:00:39   16

 absolute pressure limited to 5.000000e+10 in 421184 cells on zone 1386 

 turbulent viscosity limited to viscosity ratio of 1.000000e+05 in 416285 cells 

  iter  continuity  x-velocity  y-velocity  z-velocity      energy           k       omega     time/iter
   485  3.1276e+09  1.2001e-02  5.6116e-02  4.5283e-02  3.0630e-02  9.9408e-01  4.9562e-01  0:00:36   15

 absolute pressure limited to 5.000000e+10 in 421187 cells on zone 1386 

 turbulent viscosity limited to viscosity ratio of 1.000000e+05 in 416160 cells 
   486  3.1753e+09  1.1429e-02  5.5354e-02  4.7304e-02  3.1861e-02  9.9392e-01  4.9241e-01  0:00:36   14

 absolute pressure limited to 5.000000e+10 in 421188 cells on zone 1386 

 turbulent viscosity limited to viscosity ratio of 1.000000e+05 in 416100 cells 
   487  3.7626e+09  1.1388e-02  5.4432e-02  4.3949e-02  2.7677e-02  9.8362e-01  4.9008e-01  0:00:34   13

 absolute pressure limited to 5.000000e+10 in 421177 cells on zone 1386 

 turbulent viscosity limited to viscosity ratio of 1.000000e+05 in 416156 cells 
   488  3.6502e+09  1.1011e-02  5.4255e-02  3.8860e-02  2.8623e-02  9.9854e-01  4.9865e-01  0:00:31   12

 absolute pressure limited to 5.000000e+10 in 421175 cells on zone 1386 

 turbulent viscosity limited to viscosity ratio of 1.000000e+05 in 416106 cells 
   489  3.4703e+09  1.1094e-02  5.4484e-02  3.5852e-02  3.2186e-02  9.9405e-01  4.9662e-01  0:00:29   11
 temperature limited to 5.000000e+03 in 2 cells on zone 1386 in domain 1
 
 absolute pressure limited to 5.000000e+10 in 421181 cells on zone 1386 

 turbulent viscosity limited to viscosity ratio of 1.000000e+05 in 416062 cells 
   490  3.8962e+09  1.0469e-02  5.0957e-02  3.4207e-02  3.1547e-02  9.9080e-01  4.9470e-01  0:00:26   10
 temperature limited to 5.000000e+03 in 3 cells on zone 1386 in domain 1
 
 absolute pressure limited to 5.000000e+10 in 421196 cells on zone 1386 

 turbulent viscosity limited to viscosity ratio of 1.000000e+05 in 415845 cells 
   491  3.9395e+09  9.8780e-03  4.9203e-02  3.5365e-02  3.0670e-02  9.7907e-01  4.8928e-01  0:00:23    9
 temperature limited to 5.000000e+03 in 5 cells on zone 1386 in domain 1
 
 absolute pressure limited to 5.000000e+10 in 421169 cells on zone 1386 

 turbulent viscosity limited to viscosity ratio of 1.000000e+05 in 415680 cells 
   492  3.7431e+09  9.6057e-03  4.7383e-02  3.6125e-02  3.0881e-02  9.8973e-01  4.8963e-01  0:00:20    8

 absolute pressure limited to 5.000000e+10 in 421164 cells on zone 1386 

 turbulent viscosity limited to viscosity ratio of 1.000000e+05 in 415591 cells 
   493  3.6981e+09  1.0025e-02  4.8003e-02  3.4558e-02  3.4084e-02  9.9188e-01  4.9385e-01  0:00:18    7

 absolute pressure limited to 5.000000e+10 in 421183 cells on zone 1386 

 turbulent viscosity limited to viscosity ratio of 1.000000e+05 in 415598 cells 
   494  3.7157e+09  1.1012e-02  5.1975e-02  3.4616e-02  3.4732e-02  9.9552e-01  4.9584e-01  0:00:15    6

 absolute pressure limited to 5.000000e+10 in 421180 cells on zone 1386 

 turbulent viscosity limited to viscosity ratio of 1.000000e+05 in 415369 cells 
   495  4.0990e+09  1.1109e-02  5.5438e-02  3.1953e-02  3.4207e-02  9.9529e-01  4.9185e-01  0:00:12    5

 absolute pressure limited to 5.000000e+10 in 421126 cells on zone 1386 

 turbulent viscosity limited to viscosity ratio of 1.000000e+05 in 415307 cells 

  iter  continuity  x-velocity  y-velocity  z-velocity      energy           k       omega     time/iter
   496  3.7397e+09  1.0633e-02  5.3646e-02  2.9825e-02  3.3889e-02  9.8917e-01  4.8745e-01  0:00:10    4

 absolute pressure limited to 5.000000e+10 in 421169 cells on zone 1386 

 turbulent viscosity limited to viscosity ratio of 1.000000e+05 in 415653 cells 
   497  3.4114e+09  1.0724e-02  5.3066e-02  3.2621e-02  3.5564e-02  9.9508e-01  4.9622e-01  0:00:08    3

 absolute pressure limited to 5.000000e+10 in 421172 cells on zone 1386 

 turbulent viscosity limited to viscosity ratio of 1.000000e+05 in 415786 cells 
   498  4.0787e+09  1.2173e-02  5.8390e-02  3.2410e-02  3.1505e-02  9.9476e-01  4.9082e-01  0:00:05    2

 absolute pressure limited to 5.000000e+10 in 421163 cells on zone 1386 

 turbulent viscosity limited to viscosity ratio of 1.000000e+05 in 415766 cells 
   499  4.4324e+09  1.0712e-02  5.2614e-02  3.0888e-02  3.0953e-02  9.8106e-01  4.7388e-01  0:00:03    1

 absolute pressure limited to 5.000000e+10 in 421186 cells on zone 1386 

 turbulent viscosity limited to viscosity ratio of 1.000000e+05 in 416046 cells 
   500  3.6924e+09  9.6912e-03  4.6940e-02  2.9969e-02  3.2074e-02  9.6960e-01  4.8085e-01  0:00:00    0

> Halting due to end of file on input.
Auto-Transcript Stop Time:  02:42:06, 07 Jan 2025 
Total Transcript Time: 22 Minute 7 Second.

Automatic transcript closed.
