/opt/crc/a/ansys/2024R1/v241/fluent/fluent24.1.0/bin/fluent -r24.1.0 3ddp -t4 -g
/opt/crc/a/ansys/2024R1/v241/fluent/fluent24.1.0/cortex/lnamd64/cortex.24.1.0 -f fluent -g (fluent "3ddp -pshmem  -host -r24.1.0 -t4 -mpi=intel -path/opt/crc/a/ansys/2024R1/v241/fluent -ssh")

Opening input/output transcript to file "/tmp/1066641.1.long/worker-241760-2328490/task.25/fluent-20250107-022013-2329102.trn".
Auto-Transcript Start Time:  02:20:13, 07 Jan 2025 
/opt/crc/a/ansys/2024R1/v241/fluent/fluent24.1.0/bin/fluent -r24.1.0 3ddp -pshmem -host -t4 -mpi=intel -path/opt/crc/a/ansys/2024R1/v241/fluent -ssh -cx d32cepyc199.crc.nd.edu:35897:43295
Starting /opt/crc/a/ansys/2024R1/v241/fluent/fluent24.1.0/lnamd64/3ddp_host/fluent.24.1.0 host -cx d32cepyc199.crc.nd.edu:35897:43295 "(list (rpsetvar (QUOTE parallel/function) "fluent 3ddp -flux -node -r24.1.0 -t4 -pshmem -mpi=intel -ssh") (rpsetvar (QUOTE parallel/rhost) "") (rpsetvar (QUOTE parallel/ruser) "") (rpsetvar (QUOTE parallel/nprocs_string) "4") (rpsetvar (QUOTE parallel/auto-spawn?) #t) (rpsetvar (QUOTE parallel/trace-level) 0) (rpsetvar (QUOTE parallel/remote-shell) 1) (rpsetvar (QUOTE parallel/path) "/opt/crc/a/ansys/2024R1/v241/fluent") (rpsetvar (QUOTE parallel/hostsfile) "") (rpsetvar (QUOTE gpuapp/devices) ""))"

              Welcome to ANSYS Fluent 2024 R1

              Copyright 1987-2024 ANSYS, Inc. All Rights Reserved.
              Unauthorized use, distribution or duplication is prohibited.
              This product is subject to U.S. laws governing export and re-export.
              For full Legal Notice, see documentation.

Build Time: Nov 22 2023 10:07:25 EST  Build Id: 10184  
 
Connected License Server List:	7504@linux5-lic.crc.nd.edu

     --------------------------------------------------------------
     This is an academic version of ANSYS FLUENT. Usage of this product
     license is limited to the terms and conditions specified in your ANSYS
     license form, additional terms section.
     --------------------------------------------------------------
Host spawning Node 0 on machine "d32cepyc199.crc.nd.edu" (unix).
/opt/crc/a/ansys/2024R1/v241/fluent/fluent24.1.0/bin/fluent -r24.1.0 3ddp -flux -node -t4 -pshmem -mpi=intel -ssh -mport 10.32.91.165:10.32.91.165:39007:0
Starting /opt/crc/a/ansys/2024R1/v241/fluent/fluent24.1.0/multiport/mpi/lnamd64/intel2021/bin/mpirun --rsh=ssh -f /tmp/fluent-appfile.etracey.2331708 -genv I_MPI_FABRICS shm -genv FLUENT_ARCH lnamd64 -genv I_MPI_DEBUG 0 -genv I_MPI_ADJUST_GATHERV 3 -genv I_MPI_ADJUST_ALLREDUCE 2 -genv I_MPI_PLATFORM auto -genv PYTHONHOME /opt/crc/a/ansys/2024R1/v241/fluent/fluent24.1.0/../../commonfiles/CPython/3_10/linx64/Release/python -genv FLUENT_PROD_DIR /opt/crc/a/ansys/2024R1/v241/fluent/fluent24.1.0 -genv FLUENT_AFFINITY 0 -genv I_MPI_PIN enable -genv KMP_AFFINITY disabled -n 4 /opt/crc/a/ansys/2024R1/v241/fluent/fluent24.1.0/lnamd64/3ddp_node/fluent_mpi.24.1.0 node -mpiw intel -pic shmem -mport 10.32.91.165:10.32.91.165:39007:0

------------------------------------------------------------------------------------
ID    Hostname              Core  O.S.      PID              Vendor                
------------------------------------------------------------------------------------
n0-3  d32cepyc199.crc.nd.e  4/64  Linux-64  2332005-2332008  AMD EPYC 7543 32-Core 
host  d32cepyc199.crc.nd.e        Linux-64  2330909          AMD EPYC 7543 32-Core 

MPI Option Selected: intel
Selected system interconnect: shared-memory
------------------------------------------------------------------------------------


Initializing SGE
Done.
Cleanup script file is /tmp/1066641.1.long/worker-241760-2328490/task.25/cleanup-fluent-d32cepyc199.crc.nd.edu-2330909.sh
Key Behavioral Changes:
Fluent Guided Meshing Workflows: 
Workflow template files (.wft) are now saved by default whenever the mesh is saved. You can change the automatic creation of .wft files in Preferences. 
Journaling: 
When Ansys Fluent encounters an invalid input in a journal file that is being replayed, it now raises an error condition and aborts the journal processing. 
Turbulence: 
The value of kappa used in the Spalart-Allmaras model for interior terms was inconsistent with the reference publications of the model. Fluent historically used a value of 0.4187, but to produce results consistent with the published model, the value should be 0.41. This issue was first addressed in a previous Fluent version and access to the kappa value was given in the GUI while keeping the old default of 0.4187. In Fluent 2024 R1, the default value is now changed to 0.41. 
Turbomachinery: 
For Blade Film Cooling, you can now specify stationary holes on the surfaces of a moving/rotating cell zone in transient cases. 
Boundaries previously referred to as "casings" in the Turbo Topology definition are now referred to as "shrouds." 
Density-Based Solver: 
The High Speed Numerics have been updated to increase the robustness of the Roe-FDS numerical flux against shock-instabilities and the carbuncle phenomenon. This modification may produce a slight solution change for cases combining Roe-FDS and HSN. 
Multiphase Models: 
Modeling of open channel flows in conjunction with the translation moving reference frame (MRF) has been improved resulting in more accurate and stable solution. In addition, a solution methodology has been suggested to provide better stability for high-speed hull simulations. 
Parallel Processing: 
Using dynamic process spawning now requires that you manually specify the interconnect as -pethernet for shared memory or distributed memory without InfiniBand, and -pib.ofed for distributed memory over InfiniBand. 
Refer to the Ansys, Inc. Release Notes for a full listing of the new features included in Ansys Fluent 2024 R1. 
> Fast-loading "/opt/crc/a/ansys/2024R1/v241/fluent/fluent24.1.0/addons/afd/lib/hdfio.bin"
Done.
WARNING: Rank:0 Machine d32cepyc199.crc.nd.edu has 27 % of RAM filled with file buffer caches.
This can cause potential performance issues. Please use -cflush flag to flush the cache. 


Reading from d32cepyc199.crc.nd.edu:"/tmp/1066641.1.long/worker-241760-2328490/task.25/case.cas.h5" in NODE0 mode ...
  Reading mesh ...
      421271 cells,     1 cell zone  ...
         421271 polyhedra cells,  zone id: 1386
     2389129 faces,     5 face zones ...
            140 polygonal pressure-far-field faces,  zone id: 17
            143 polygonal pressure-far-field faces,  zone id: 18
           2146 polygonal pressure-far-field faces,  zone id: 19
          53062 polygonal wall faces,  zone id: 20
        2333638 polygonal interior faces,  zone id: 1385
     1712407 nodes,     1 node zone  ...
  Done.


Building...
     mesh
	auto partitioning mesh by Metis (fast),
	distributing mesh
		parts....,
		faces....,
		nodes....,
		cells....,
        bandwidth reduction using Reverse Cuthill-McKee: 105091/6604 = 15.9132
  Reading boundary layer flags ...
  Done.

     materials,
     interface,
     domains,
	mixture
     zones,
	inlet
	outlet
	farfield
	launchvehicle
	interior--solid
	solid
     parallel,
Done.
Warning: Pressure far-field boundary condition can only be used with ideal gas law.
  Please change either the boundary condition type or enable ideal gas law.
  Solver cannot proceed until this is fixed.
	Warning: Pressure far-field boundary condition can only be used with ideal gas law.
  Please change either the boundary condition type or enable ideal gas law.
  Solver cannot proceed until this is fixed.
	
> adjoint/                parallel/               server/
define/                 parametric-study/       solve/
display/                plot/                   surface/
exit                    preferences/            turbo-workflow/
file/                   print-license-usage     views/
mesh/                   report/

> air is a fluid

Density
no data required.


Note: Enabling energy equation as required by material density method.

> adjoint/                parallel/               server/
define/                 parametric-study/       solve/
display/                plot/                   surface/
exit                    preferences/            turbo-workflow/
file/                   print-license-usage     views/
mesh/                   report/

> 
> adjoint/                parallel/               server/
define/                 parametric-study/       solve/
display/                plot/                   surface/
exit                    preferences/            turbo-workflow/
file/                   print-license-usage     views/
mesh/                   report/

> 
> adjoint/                parallel/               server/
define/                 parametric-study/       solve/
display/                plot/                   surface/
exit                    preferences/            turbo-workflow/
file/                   print-license-usage     views/
mesh/                   report/

> (farfield outlet inlet)

> (farfield outlet inlet)

> (farfield outlet inlet)

> adjoint/                parallel/               server/
define/                 parametric-study/       solve/
display/                plot/                   surface/
exit                    preferences/            turbo-workflow/
file/                   print-license-usage     views/
mesh/                   report/

> (launchvehicle)

> adjoint/                parallel/               server/
define/                 parametric-study/       solve/
display/                plot/                   surface/
exit                    preferences/            turbo-workflow/
file/                   print-license-usage     views/
mesh/                   report/

> 
> 
> 
> 
> 
> 
> adjoint/                parallel/               server/
define/                 parametric-study/       solve/
display/                plot/                   surface/
exit                    preferences/            turbo-workflow/
file/                   print-license-usage     views/
mesh/                   report/

> 
> 
> 
> adjoint/                parallel/               server/
define/                 parametric-study/       solve/
display/                plot/                   surface/
exit                    preferences/            turbo-workflow/
file/                   print-license-usage     views/
mesh/                   report/

> 
> 
> 
> adjoint/                parallel/               server/
define/                 parametric-study/       solve/
display/                plot/                   surface/
exit                    preferences/            turbo-workflow/
file/                   print-license-usage     views/
mesh/                   report/

> 
> adjoint/                parallel/               server/
define/                 parametric-study/       solve/
display/                plot/                   surface/
exit                    preferences/            turbo-workflow/
file/                   print-license-usage     views/
mesh/                   report/

> 
Initialize using the hybrid initialization method.

Checking case topology... 
-This case has multiple farfield bc 
-Case will be initialized with constant parameters

	iter		scalar-0

	1		1.000000e+00
	2		3.823582e-04
	3		6.567420e-05
	4		1.591094e-05
	5		4.134349e-06
	6		1.180244e-06
	7		2.901411e-07
	8		1.226539e-07
	9		7.032584e-08
	10		3.771444e-08

Hybrid initialization is done.

Note: Settings to improve the robustness of pathline and
      particle tracking have been automatically enabled.


> 
  iter  continuity  x-velocity  y-velocity  z-velocity      energy           k       omega     time/iter
     1  1.0000e+00  1.7118e-04  3.0686e-04  3.0020e-04  2.7970e-06  8.2471e-01  4.4826e-01  0:23:08  499
     2  9.0917e-01  1.2419e-04  2.5385e-04  1.8349e-04  2.7507e-06  7.2803e-01  4.2042e-01  0:22:57  498
     3  1.0000e+00  1.1970e-04  2.8003e-04  1.5664e-04  2.4417e-06  5.6022e-01  3.8051e-01  0:22:48  497
     4  1.0000e+00  1.2154e-04  4.3500e-04  1.2144e-04  3.5142e-06  3.8282e-01  3.2374e-01  0:22:37  496
     5  1.0000e+00  1.8060e-04  9.1618e-04  1.9495e-04  6.5267e-06  2.3394e-01  2.5395e-01  0:23:06  495
     6  2.1777e+00  3.2534e-04  2.0171e-03  3.6124e-04  1.9065e-05  2.1853e-01  1.9684e-01  0:23:31  494
     7  4.3951e+00  6.2686e-04  4.9093e-03  7.7608e-04  6.3922e-05  4.3509e-01  2.2086e-01  0:23:11  493
     8  6.7993e+00  1.3566e-03  7.7851e-03  1.8350e-03  1.3326e-04  4.4771e-01  2.4672e-01  0:22:56  492
     9  7.3546e+00  2.1273e-03  1.0310e-02  2.3963e-03  1.3685e-04  4.1064e-01  2.1589e-01  0:22:43  491
    10  7.2021e+00  1.7430e-03  9.1309e-03  1.9877e-03  2.4345e-04  3.9129e-01  2.2318e-01  0:22:34  490
    11  9.9972e+00  3.0717e-03  1.6642e-02  3.2954e-03  2.3418e-04  5.1212e-01  2.9575e-01  0:22:26  489

  iter  continuity  x-velocity  y-velocity  z-velocity      energy           k       omega     time/iter
    12  8.2711e+00  2.3587e-03  1.0872e-02  2.9659e-03  2.5348e-04  4.8291e-01  2.9100e-01  0:22:19  488
    13  1.1155e+01  3.6756e-03  2.0502e-02  3.6624e-03  3.0356e-04  5.1371e-01  2.9704e-01  0:22:15  487
    14  9.7248e+00  2.8235e-03  1.4090e-02  3.5934e-03  4.2711e-04  5.2893e-01  3.3058e-01  0:22:10  486
    15  1.3502e+01  5.2124e-03  2.8326e-02  4.8704e-03  4.1745e-04  5.9965e-01  3.6765e-01  0:22:03  485
    16  1.3034e+01  4.3774e-03  1.8974e-02  5.1591e-03  6.8178e-04  5.9560e-01  3.8581e-01  0:21:56  484
    17  1.4664e+01  9.6258e-03  3.2669e-02  5.4106e-03  4.8641e-04  5.7884e-01  3.4550e-01  0:21:49  483
    18  1.4280e+01  8.0724e-03  2.6946e-02  6.4803e-03  1.1994e-03  5.5333e-01  3.6902e-01  0:21:45  482
    19  1.7319e+01  1.2928e-02  4.7413e-02  6.2307e-03  8.5650e-04  6.2436e-01  4.0313e-01  0:22:07  481
    20  1.8144e+01  1.0435e-02  3.6317e-02  8.1283e-03  1.1386e-03  5.5144e-01  3.6880e-01  0:21:57  480
    21  1.6595e+01  1.4454e-02  4.8222e-02  7.7889e-03  9.8294e-04  5.7055e-01  3.7332e-01  0:21:49  479
    22  2.1814e+01  1.4545e-02  4.7713e-02  9.0678e-03  2.7229e-03  7.3650e-01  4.6679e-01  0:21:42  478

  iter  continuity  x-velocity  y-velocity  z-velocity      energy           k       omega     time/iter
    23  2.2807e+01  1.9665e-02  6.8402e-02  1.1778e-02  1.3488e-03  6.2060e-01  4.0638e-01  0:21:35  477
    24  2.3864e+01  1.7744e-02  6.4943e-02  1.3166e-02  2.2618e-03  6.5365e-01  4.8609e-01  0:21:30  476
    25  2.5648e+01  2.0904e-02  7.8212e-02  1.3926e-02  1.9395e-03  6.7950e-01  4.0315e-01  0:21:24  475
    26  2.6776e+01  2.3512e-02  7.8869e-02  1.6395e-02  3.6679e-03  5.7246e-01  3.9949e-01  0:21:20  474
    27  2.9046e+01  3.4672e-02  8.4579e-02  1.7341e-02  1.9724e-03  6.7578e-01  4.3000e-01  0:21:17  473
    28  3.0626e+01  3.0191e-02  9.5228e-02  1.9311e-02  4.2998e-03  8.4879e-01  5.9660e-01  0:21:13  472
    29  2.7800e+01  4.9413e-02  8.7989e-02  1.8224e-02  3.1696e-03  8.6617e-01  5.0277e-01  0:21:10  471
    30  3.6690e+01  3.8212e-02  1.1705e-01  2.1314e-02  4.1111e-03  8.3464e-01  5.6872e-01  0:21:07  470
    31  3.5037e+01  5.3780e-02  1.0812e-01  1.9413e-02  7.7563e-03  7.8703e-01  4.7475e-01  0:21:02  469
    32  3.7054e+01  3.4272e-02  1.1467e-01  1.9329e-02  4.1956e-03  7.3969e-01  4.8196e-01  0:20:57  468
    33  3.8784e+01  5.8806e-02  1.0774e-01  2.2414e-02  4.7249e-03  1.2498e+00  8.4341e-01  0:20:52  467

  iter  continuity  x-velocity  y-velocity  z-velocity      energy           k       omega     time/iter
    34  4.1352e+01  4.7245e-02  1.2007e-01  2.4968e-02  5.3262e-03  8.5877e-01  4.6494e-01  0:20:46  466
    35  4.1412e+01  4.7806e-02  1.1195e-01  2.2768e-02  4.5200e-03  7.9315e-01  4.9340e-01  0:20:41  465
    36  4.6186e+01  5.2543e-02  1.3528e-01  2.4528e-02  6.1182e-03  8.0435e-01  5.1868e-01  0:20:39  464
    37  4.3904e+01  6.6168e-02  1.2109e-01  2.3341e-02  5.4400e-03  8.7280e-01  5.1256e-01  0:20:38  463
    38  4.7556e+01  5.3518e-02  1.1525e-01  2.2881e-02  1.0368e-02  7.4074e-01  4.5657e-01  0:20:38  462
    39  4.8400e+01  6.1860e-02  1.2800e-01  2.3914e-02  4.8194e-03  8.8228e-01  5.7508e-01  0:20:36  461
    40  5.1910e+01  5.7241e-02  1.2280e-01  2.3559e-02  1.5936e-02  1.0894e+00  7.1193e-01  0:20:36  460
    41  5.0433e+01  6.7503e-02  1.5173e-01  2.7317e-02  5.6364e-03  9.2614e-01  4.8763e-01  0:20:34  459
    42  5.2738e+01  5.7620e-02  1.1820e-01  2.3028e-02  5.4323e-03  8.8690e-01  5.0210e-01  0:20:31  458
    43  5.4541e+01  5.6877e-02  1.4002e-01  2.7238e-02  7.4421e-03  8.5903e-01  5.0386e-01  0:20:30  457
    44  5.2245e+01  6.6974e-02  1.0385e-01  2.5494e-02  5.0882e-03  7.9530e-01  4.7986e-01  0:20:27  456

  iter  continuity  x-velocity  y-velocity  z-velocity      energy           k       omega     time/iter
    45  5.5748e+01  6.0965e-02  1.2335e-01  2.5978e-02  5.8401e-03  1.0757e+00  6.8544e-01  0:20:24  455
    46  5.6384e+01  5.3421e-02  1.0378e-01  2.1947e-02  5.1563e-03  8.7437e-01  4.7817e-01  0:20:20  454
    47  6.2140e+01  4.7387e-02  1.0933e-01  2.1690e-02  7.6771e-03  8.0962e-01  5.0955e-01  0:20:18  453
    48  5.6198e+01  6.3662e-02  9.5376e-02  2.3498e-02  8.5727e-03  8.0943e-01  5.1445e-01  0:20:16  452
    49  6.6732e+01  6.4663e-02  9.9093e-02  2.3274e-02  8.8356e-03  1.1577e+00  7.7038e-01  0:20:16  451
    50  6.4616e+01  4.8552e-02  1.0574e-01  2.1504e-02  6.6409e-03  9.0349e-01  4.8441e-01  0:20:13  450
    51  6.2057e+01  5.6907e-02  8.8752e-02  1.8517e-02  9.2900e-03  8.2426e-01  5.0860e-01  0:20:09  449
    52  6.4077e+01  5.4722e-02  1.0372e-01  2.2077e-02  5.0844e-03  8.5760e-01  5.5903e-01  0:20:05  448
    53  7.0639e+01  4.9896e-02  8.3522e-02  1.9564e-02  6.1665e-03  8.7212e-01  5.1156e-01  0:20:02  447
    54  6.6056e+01  4.2713e-02  9.1910e-02  1.9767e-02  6.4102e-03  8.9759e-01  5.3566e-01  0:19:57  446
    55  6.9886e+01  4.8473e-02  8.8362e-02  1.8937e-02  6.3308e-03  8.6993e-01  4.9467e-01  0:19:53  445

  iter  continuity  x-velocity  y-velocity  z-velocity      energy           k       omega     time/iter
    56  6.5469e+01  5.0306e-02  8.4746e-02  2.0659e-02  5.7197e-03  7.9692e-01  5.0244e-01  0:19:50  444
    57  7.3836e+01  5.1720e-02  8.5583e-02  1.8377e-02  6.1440e-03  7.3718e-01  5.0090e-01  0:19:47  443
    58  6.9467e+01  4.2019e-02  9.8508e-02  2.0201e-02  6.2551e-03  6.3944e-01  4.6603e-01  0:19:42  442
    59  7.3443e+01  4.2599e-02  1.0023e-01  1.9741e-02  7.4899e-03  7.1991e-01  5.4767e-01  0:19:38  441
    60  7.2440e+01  5.6010e-02  8.5689e-02  2.0143e-02  6.2053e-03  8.2105e-01  5.8517e-01  0:19:34  440
    61  8.0748e+01  4.9222e-02  1.0135e-01  2.0740e-02  1.2680e-02  8.3457e-01  5.3514e-01  0:19:32  439
    62  8.0065e+01  6.8259e-02  9.6692e-02  2.2125e-02  7.3126e-03  7.7973e-01  4.8812e-01  0:19:30  438
    63  8.0360e+01  5.4080e-02  1.0901e-01  2.3978e-02  9.1639e-03  8.4117e-01  5.6097e-01  0:19:29  437
    64  8.2484e+01  6.2639e-02  9.0398e-02  2.4036e-02  6.5428e-03  8.7583e-01  5.2598e-01  0:19:28  436
    65  9.0737e+01  6.0433e-02  1.2427e-01  2.5865e-02  1.0623e-02  9.3616e-01  5.7118e-01  0:19:30  435
    66  8.6764e+01  4.5826e-02  1.1474e-01  2.3019e-02  7.1825e-03  8.3083e-01  4.8962e-01  0:19:26  434

  iter  continuity  x-velocity  y-velocity  z-velocity      energy           k       omega     time/iter
    67  9.3478e+01  5.2631e-02  1.2355e-01  2.6472e-02  1.1296e-02  1.0178e+00  6.2872e-01  0:19:22  433
    68  9.4265e+01  6.4660e-02  1.0684e-01  2.4673e-02  1.2455e-02  8.2593e-01  4.8113e-01  0:19:17  432
    69  9.7153e+01  5.3442e-02  1.3485e-01  2.4953e-02  1.0738e-02  9.2960e-01  5.7930e-01  0:19:14  431
    70  9.6764e+01  5.9044e-02  1.3326e-01  2.7346e-02  1.2881e-02  9.6829e-01  5.8443e-01  0:19:08  430
    71  1.0700e+02  5.4705e-02  1.2969e-01  2.6637e-02  1.3005e-02  9.1689e-01  5.3188e-01  0:19:06  429
    72  1.1103e+02  7.3372e-02  1.0605e-01  2.6140e-02  1.0806e-02  9.4642e-01  5.4453e-01  0:19:05  428
    73  1.0972e+02  5.7752e-02  1.2683e-01  2.8204e-02  1.4711e-02  9.7400e-01  5.5009e-01  0:19:02  427
    74  1.1181e+02  4.7431e-02  1.2685e-01  2.5022e-02  1.0952e-02  9.0498e-01  4.9492e-01  0:19:02  426
    75  1.2039e+02  7.0345e-02  1.2393e-01  2.8428e-02  1.5043e-02  1.1076e+00  6.0895e-01  0:19:02  425
    76  1.1793e+02  6.7432e-02  1.0217e-01  2.4751e-02  1.3513e-02  9.1987e-01  5.0826e-01  0:19:01  424
    77  1.2477e+02  4.7579e-02  1.2841e-01  2.5751e-02  1.3466e-02  9.6144e-01  5.4597e-01  0:18:57  423

  iter  continuity  x-velocity  y-velocity  z-velocity      energy           k       omega     time/iter
    78  1.2037e+02  5.5258e-02  1.2209e-01  2.4981e-02  1.2197e-02  9.9140e-01  5.5507e-01  0:18:52  422
    79  1.2524e+02  5.8493e-02  1.2546e-01  2.7304e-02  1.4547e-02  9.4018e-01  5.0549e-01  0:18:46  421
    80  1.2867e+02  7.3451e-02  1.0596e-01  2.6680e-02  1.1996e-02  9.1101e-01  5.1509e-01  0:18:41  420
    81  1.3217e+02  4.8490e-02  1.2073e-01  2.5878e-02  1.5405e-02  9.5623e-01  5.5063e-01  0:18:35  419
    82  1.3065e+02  4.8791e-02  1.2374e-01  2.4467e-02  1.2644e-02  1.0299e+00  5.8048e-01  0:18:33  418
    83  1.3765e+02  5.0259e-02  1.2721e-01  2.7311e-02  1.8188e-02  1.0733e+00  6.2363e-01  0:18:35  417
    84  1.4155e+02  5.9179e-02  1.0340e-01  2.2504e-02  1.2304e-02  9.4182e-01  5.0466e-01  0:18:32  416
    85  1.4646e+02  5.0349e-02  1.2352e-01  2.6914e-02  1.7352e-02  1.0339e+00  5.7132e-01  0:18:33  415
    86  1.4495e+02  5.5546e-02  1.0630e-01  2.3390e-02  1.5559e-02  9.6336e-01  5.1451e-01  0:18:32  414
    87  1.5782e+02  5.8904e-02  1.2482e-01  2.8384e-02  1.6745e-02  1.0011e+00  5.4238e-01  0:18:31  413
    88  1.5356e+02  6.4099e-02  9.8642e-02  2.5514e-02  1.4775e-02  9.6566e-01  5.3452e-01  0:18:27  412

  iter  continuity  x-velocity  y-velocity  z-velocity      energy           k       omega     time/iter
    89  1.6017e+02  5.1213e-02  1.2096e-01  2.6975e-02  1.3484e-02  9.3175e-01  5.1016e-01  0:18:25  411
    90  1.5815e+02  5.0232e-02  1.1407e-01  2.5579e-02  1.3383e-02  9.4221e-01  5.2051e-01  0:18:21  410
    91  1.6656e+02  5.1236e-02  1.2615e-01  2.9039e-02  2.3563e-02  1.0941e+00  5.8708e-01  0:18:16  409
    92  1.7216e+02  6.2877e-02  9.6354e-02  2.3362e-02  2.0124e-02  9.6245e-01  5.2154e-01  0:18:12  408
    93  1.8342e+02  4.4827e-02  1.1970e-01  2.5403e-02  2.0429e-02  1.0450e+00  5.9179e-01  0:18:10  407
    94  1.7442e+02  5.3725e-02  1.1523e-01  2.4784e-02  1.9536e-02  1.0576e+00  5.6272e-01  0:18:07  406
    95  1.8496e+02  5.9948e-02  1.2992e-01  2.7669e-02  1.6316e-02  9.9736e-01  5.3051e-01  0:18:04  405
    96  1.8461e+02  5.7891e-02  1.1007e-01  2.8010e-02  1.8022e-02  9.6071e-01  5.1406e-01  0:18:00  404
    97  1.9524e+02  5.2099e-02  1.3134e-01  3.0230e-02  2.4051e-02  9.4889e-01  5.0815e-01  0:17:54  403
    98  1.9499e+02  4.7960e-02  1.3339e-01  2.7774e-02  2.0991e-02  1.0938e+00  5.8437e-01  0:17:49  402
    99  1.9374e+02  5.2565e-02  1.3100e-01  2.9513e-02  3.0964e-02  1.0151e+00  5.3257e-01  0:17:46  401

  iter  continuity  x-velocity  y-velocity  z-velocity      energy           k       omega     time/iter
   100  2.0367e+02  6.3586e-02  1.1414e-01  2.8266e-02  1.7295e-02  1.0073e+00  5.4152e-01  0:17:43  400
   101  2.1693e+02  4.8958e-02  1.2745e-01  3.0670e-02  2.8043e-02  1.0680e+00  5.8339e-01  0:17:41  399
   102  2.1846e+02  6.7801e-02  1.2222e-01  2.6477e-02  2.4719e-02  9.7060e-01  5.0817e-01  0:17:40  398
   103  2.1514e+02  6.3542e-02  1.2501e-01  2.9849e-02  2.1425e-02  1.0084e+00  5.3507e-01  0:17:39  397
   104  2.1613e+02  5.9671e-02  1.3744e-01  3.2101e-02  2.0518e-02  1.1303e+00  6.1537e-01  0:17:43  396
   105  2.3721e+02  4.9145e-02  1.3100e-01  3.0589e-02  2.3678e-02  9.8252e-01  5.0501e-01  0:17:44  395
   106  2.3111e+02  4.9751e-02  1.3136e-01  2.9074e-02  1.9926e-02  9.9405e-01  5.2506e-01  0:17:43  394
   107  2.3834e+02  5.8491e-02  1.3837e-01  3.3593e-02  3.0360e-02  1.0880e+00  5.6643e-01  0:17:39  393
   108  2.3347e+02  5.9376e-02  1.0743e-01  2.7935e-02  2.2785e-02  1.0134e+00  5.2930e-01  0:17:35  392
   109  2.6105e+02  4.6282e-02  1.2731e-01  3.0069e-02  3.2805e-02  1.0308e+00  5.4341e-01  0:17:29  391
   110  2.6154e+02  6.2888e-02  1.2995e-01  3.0406e-02  3.4237e-02  9.9278e-01  5.2859e-01  0:17:22  390

  iter  continuity  x-velocity  y-velocity  z-velocity      energy           k       omega     time/iter
   111  2.5277e+02  6.8299e-02  1.1346e-01  2.8585e-02  2.4081e-02  1.0328e+00  5.3347e-01  0:17:17  389
   112  2.5260e+02  4.9261e-02  1.3567e-01  3.1579e-02  2.8528e-02  1.0381e+00  5.4957e-01  0:17:14  388
   113  2.7623e+02  4.5335e-02  1.2872e-01  2.8775e-02  2.8500e-02  1.0211e+00  5.4088e-01  0:17:11  387
   114  2.6684e+02  5.5386e-02  1.2146e-01  2.8015e-02  1.7297e-02  9.8198e-01  5.2716e-01  0:17:12  386
   115  2.7206e+02  4.9599e-02  1.3009e-01  3.0736e-02  2.3100e-02  1.0547e+00  5.5486e-01  0:17:10  385
   116  2.7066e+02  5.4903e-02  1.1454e-01  2.8578e-02  2.1791e-02  9.9304e-01  5.2400e-01  0:17:07  384
   117  3.0100e+02  5.0365e-02  1.2999e-01  3.0588e-02  3.1220e-02  1.0742e+00  5.6999e-01  0:17:07  383
   118  2.8935e+02  5.7983e-02  1.1742e-01  3.0105e-02  2.4125e-02  9.7857e-01  5.1705e-01  0:17:04  382
   119  3.0959e+02  5.4573e-02  1.2032e-01  2.9494e-02  2.3594e-02  1.0545e+00  5.5322e-01  0:17:04  381
   120  3.0001e+02  5.6102e-02  1.0659e-01  2.9126e-02  1.9272e-02  1.0082e+00  5.3407e-01  0:17:00  380
   121  3.4534e+02  4.8015e-02  1.2889e-01  3.1727e-02  2.8083e-02  1.0293e+00  5.4602e-01  0:16:59  379

  iter  continuity  x-velocity  y-velocity  z-velocity      energy           k       omega     time/iter
   122  3.1242e+02  4.4991e-02  1.0833e-01  2.7285e-02  2.4363e-02  9.9952e-01  5.3763e-01  0:16:56  378
   123  3.4771e+02  5.0569e-02  1.2932e-01  3.1107e-02  3.0643e-02  1.0859e+00  5.7729e-01  0:16:54  377
   124  3.2465e+02  4.6327e-02  1.2241e-01  3.0290e-02  2.1401e-02  9.8936e-01  5.1788e-01  0:16:50  376
   125  3.7523e+02  4.8913e-02  1.3877e-01  3.2344e-02  2.8337e-02  1.0117e+00  5.3241e-01  0:16:48  375
   126  3.4423e+02  5.2792e-02  1.0622e-01  2.9141e-02  3.0285e-02  1.0132e+00  5.4432e-01  0:16:45  374
   127  4.1421e+02  5.6274e-02  1.3658e-01  3.3740e-02  3.8331e-02  1.1287e+00  6.0690e-01  0:16:40  373
   128  3.6473e+02  4.4911e-02  1.0300e-01  2.6205e-02  2.1886e-02  9.8650e-01  5.1671e-01  0:16:37  372
   129  4.4170e+02  5.1074e-02  1.3073e-01  3.2207e-02  4.0432e-02  1.1361e+00  6.1090e-01  0:16:32  371
   130  4.0149e+02  4.6465e-02  1.1103e-01  2.9083e-02  2.2488e-02  9.7479e-01  5.0718e-01  0:16:27  370
   131  4.3498e+02  5.1243e-02  1.2805e-01  3.3444e-02  2.6441e-02  1.0472e+00  5.4002e-01  0:16:23  369
   132  4.0494e+02  5.1781e-02  1.2999e-01  3.3345e-02  2.6132e-02  9.9401e-01  5.1898e-01  0:16:19  368

  iter  continuity  x-velocity  y-velocity  z-velocity      energy           k       omega     time/iter
   133  4.7405e+02  5.4756e-02  1.3033e-01  3.1864e-02  2.8893e-02  1.0540e+00  5.5106e-01  0:16:16  367
   134  4.3603e+02  4.8862e-02  1.0234e-01  2.8114e-02  2.5320e-02  1.0274e+00  5.4654e-01  0:16:14  366
   135  4.8226e+02  5.4686e-02  1.4146e-01  3.5650e-02  3.4238e-02  1.0642e+00  5.5704e-01  0:16:15  365
   136  4.4785e+02  5.9682e-02  1.1988e-01  3.3409e-02  5.7400e-02  1.0212e+00  5.3269e-01  0:16:15  364
   137  5.1850e+02  4.7231e-02  1.5088e-01  3.6036e-02  3.4017e-02  1.0366e+00  5.4340e-01  0:16:17  363
   138  4.7666e+02  5.4158e-02  1.0827e-01  3.1920e-02  4.3738e-02  9.8362e-01  5.1517e-01  0:16:17  362
   139  5.1723e+02  4.9637e-02  1.4454e-01  2.9973e-02  3.0304e-02  1.1382e+00  5.8107e-01  0:16:16  361
   140  4.6479e+02  4.9815e-02  1.2407e-01  3.1473e-02  2.6598e-02  1.0180e+00  5.2882e-01  0:16:13  360
   141  5.6080e+02  5.1666e-02  1.3505e-01  3.3138e-02  3.5651e-02  1.0666e+00  5.5883e-01  0:16:15  359
   142  5.3284e+02  5.0437e-02  1.0357e-01  2.9387e-02  4.8639e-02  9.9203e-01  5.1973e-01  0:16:07  358
   143  5.6534e+02  4.8067e-02  1.3108e-01  2.9453e-02  3.9693e-02  1.1943e+00  6.1569e-01  0:16:00  357

  iter  continuity  x-velocity  y-velocity  z-velocity      energy           k       omega     time/iter
   144  5.0453e+02  5.0083e-02  1.2473e-01  3.2886e-02  2.9617e-02  1.0117e+00  5.2395e-01  0:15:54  356
   145  5.7543e+02  5.6222e-02  1.2578e-01  3.2689e-02  3.6315e-02  1.0099e+00  5.2124e-01  0:15:23  355
   146  5.8851e+02  6.1997e-02  1.2963e-01  3.1805e-02  2.7252e-02  1.0292e+00  5.3000e-01  0:15:24  354
   147  5.7950e+02  4.4744e-02  1.2086e-01  3.0153e-02  2.9667e-02  1.0418e+00  5.3364e-01  0:15:30  353
   148  5.3395e+02  4.3517e-02  1.1099e-01  2.7828e-02  2.6935e-02  1.0157e+00  5.2054e-01  0:15:31  352
   149  7.0053e+02  5.1259e-02  1.4418e-01  3.5739e-02  4.0734e-02  1.0813e+00  5.5740e-01  0:15:32  351
   150  6.0408e+02  4.7527e-02  9.4780e-02  2.7422e-02  3.1281e-02  9.8824e-01  5.0851e-01  0:15:34  350
   151  6.3824e+02  4.6586e-02  1.3411e-01  3.2782e-02  3.8053e-02  1.1714e+00  5.8960e-01  0:15:36  349
   152  5.6838e+02  6.0196e-02  1.1446e-01  3.1678e-02  2.1052e-02  9.8343e-01  5.1070e-01  0:15:40  348
   153  6.8633e+02  5.4898e-02  1.3191e-01  3.3962e-02  3.0310e-02  1.0571e+00  5.4271e-01  0:15:40  347
   154  6.0797e+02  4.9683e-02  1.0306e-01  2.8346e-02  2.6018e-02  1.0223e+00  5.3006e-01  0:15:37  346

  iter  continuity  x-velocity  y-velocity  z-velocity      energy           k       omega     time/iter
   155  6.9245e+02  5.3496e-02  1.3999e-01  3.3731e-02  3.3660e-02  1.0294e+00  5.3177e-01  0:15:35  345
   156  5.6003e+02  4.4379e-02  1.1209e-01  2.9079e-02  4.4373e-02  1.0292e+00  5.3819e-01  0:15:04  344
   157  7.3401e+02  6.8063e-02  1.6280e-01  4.0177e-02  4.7202e-02  1.2411e+00  6.5534e-01  0:15:04  343
   158  6.8052e+02  5.6974e-02  1.1046e-01  2.8730e-02  2.8520e-02  9.9495e-01  5.1002e-01  0:15:01  342
   159  6.5670e+02  4.5692e-02  1.1998e-01  2.9149e-02  4.2342e-02  1.0527e+00  5.4011e-01  0:14:34  341
   160  6.4774e+02  5.8696e-02  1.4335e-01  3.3804e-02  3.9104e-02  1.0346e+00  5.4044e-01  0:14:13  340
   161  7.2025e+02  5.1526e-02  1.3565e-01  3.3328e-02  2.3799e-02  9.9082e-01  5.0491e-01  0:13:58  339
   162  6.7350e+02  5.6419e-02  1.2523e-01  3.2378e-02  3.5200e-02  1.0213e+00  5.2389e-01  0:13:46  338
   163  6.8903e+02  5.2630e-02  1.5183e-01  3.4894e-02  4.4502e-02  1.0756e+00  5.4535e-01  0:14:01  337
   164  6.1870e+02  4.4302e-02  1.3162e-01  3.1708e-02  2.8907e-02  1.0097e+00  5.1549e-01  0:13:48  336
   165  7.6101e+02  5.4926e-02  1.3154e-01  3.2784e-02  3.1651e-02  1.0786e+00  5.5966e-01  0:13:58  335

  iter  continuity  x-velocity  y-velocity  z-velocity      energy           k       omega     time/iter
   166  6.5116e+02  4.8221e-02  1.1737e-01  3.0876e-02  2.0679e-02  1.0047e+00  5.1514e-01  0:14:05  334
   167  6.5235e+02  5.1341e-02  1.1206e-01  3.0785e-02  3.1856e-02  1.1301e+00  5.7781e-01  0:13:45  333
   168  6.7219e+02  5.7952e-02  1.2399e-01  3.2404e-02  2.4747e-02  1.0058e+00  5.1911e-01  0:13:56  332
   169  6.8298e+02  5.4370e-02  1.2244e-01  3.2171e-02  4.0486e-02  1.0049e+00  5.1575e-01  0:14:04  331
   170  7.0225e+02  5.2176e-02  1.3478e-01  3.2223e-02  3.1431e-02  1.0844e+00  5.5567e-01  0:14:13  330
   171  7.1503e+02  5.5121e-02  1.2044e-01  3.0907e-02  2.6127e-02  9.8890e-01  5.1088e-01  0:13:54  329
   172  6.8736e+02  4.2875e-02  1.1688e-01  2.7672e-02  3.7466e-02  1.1260e+00  5.7943e-01  0:13:38  328
   173  7.0156e+02  5.2469e-02  1.4057e-01  3.2815e-02  4.4135e-02  1.0676e+00  5.6166e-01  0:13:47  327
   174  7.6129e+02  5.6395e-02  1.3533e-01  3.2016e-02  2.8342e-02  1.0220e+00  5.2852e-01  0:13:53  326
   175  7.7156e+02  5.0335e-02  1.2461e-01  3.2557e-02  2.5461e-02  1.0011e+00  5.1836e-01  0:13:33  325
   176  7.6572e+02  5.6794e-02  1.3920e-01  3.3597e-02  3.3326e-02  1.0841e+00  5.6329e-01  0:13:16  324

  iter  continuity  x-velocity  y-velocity  z-velocity      energy           k       omega     time/iter
   177  7.8700e+02  6.2055e-02  1.3101e-01  3.5581e-02  3.7130e-02  1.0133e+00  5.1608e-01  0:13:27  323
   178  8.0824e+02  6.8010e-02  1.2141e-01  3.4331e-02  2.6661e-02  1.1124e+00  5.7117e-01  0:13:35  322
   179  8.5301e+02  5.8758e-02  1.2550e-01  3.6782e-02  3.7760e-02  9.9701e-01  5.1213e-01  0:13:42  321
   180  8.6626e+02  4.4070e-02  1.2628e-01  3.1528e-02  2.8628e-02  1.0560e+00  5.4066e-01  0:13:25  320
   181  8.7308e+02  4.7840e-02  1.3022e-01  3.4168e-02  4.0700e-02  1.0558e+00  5.4175e-01  0:13:36  319
   182  9.2720e+02  5.7586e-02  1.3096e-01  3.3776e-02  3.3793e-02  1.0206e+00  5.2157e-01  0:13:44  318
   183  9.2270e+02  5.6073e-02  1.1061e-01  3.1358e-02  2.6926e-02  1.0192e+00  5.2128e-01  0:14:08  317
   184  9.6363e+02  5.3924e-02  1.2414e-01  3.4413e-02  3.1414e-02  1.0354e+00  5.2801e-01  0:13:41  316
   185  8.9503e+02  5.4758e-02  1.1504e-01  3.2366e-02  3.0477e-02  1.0336e+00  5.2722e-01  0:13:17  315
   186  9.8603e+02  4.9895e-02  1.1968e-01  3.1588e-02  3.0726e-02  1.1006e+00  5.6128e-01  0:13:02  314
   187  9.9313e+02  4.3792e-02  1.0960e-01  3.0698e-02  2.9240e-02  1.0042e+00  5.1449e-01  0:12:49  313

  iter  continuity  x-velocity  y-velocity  z-velocity      energy           k       omega     time/iter
   188  1.0538e+03  4.4216e-02  1.2579e-01  3.1344e-02  2.8137e-02  1.1003e+00  5.6290e-01  0:13:02  312
   189  9.7032e+02  4.0015e-02  1.0496e-01  2.8511e-02  3.4420e-02  1.0795e+00  5.5971e-01  0:12:47  311
   190  1.0796e+03  5.1196e-02  1.1141e-01  3.0672e-02  2.8523e-02  1.0246e+00  5.2552e-01  0:12:33  310
   191  1.0982e+03  4.5285e-02  1.0429e-01  2.9041e-02  3.8831e-02  1.0185e+00  5.2456e-01  0:12:23  309
   192  1.1731e+03  4.2113e-02  1.1831e-01  2.8851e-02  3.0162e-02  1.0450e+00  5.3601e-01  0:12:14  308
   193  1.0644e+03  5.1644e-02  9.3201e-02  2.8490e-02  2.7030e-02  1.0233e+00  5.2280e-01  0:12:08  307
   194  1.2266e+03  4.9307e-02  1.1843e-01  3.2303e-02  4.5615e-02  1.0665e+00  5.5044e-01  0:12:01  306
   195  1.1474e+03  3.9223e-02  9.9092e-02  2.8876e-02  2.6461e-02  9.9853e-01  5.0672e-01  0:11:56  305
   196  1.3643e+03  4.9252e-02  1.2530e-01  3.2996e-02  3.9419e-02  1.0472e+00  5.3297e-01  0:11:55  304
   197  1.1916e+03  4.7596e-02  1.0056e-01  2.9728e-02  4.1171e-02  1.0318e+00  5.2118e-01  0:11:50  303
   198  1.4092e+03  6.0445e-02  1.1394e-01  3.3260e-02  4.2866e-02  1.0840e+00  5.5195e-01  0:11:43  302

  iter  continuity  x-velocity  y-velocity  z-velocity      energy           k       omega     time/iter
   199  1.4106e+03  4.3317e-02  1.0890e-01  3.3166e-02  3.2564e-02  1.0210e+00  5.2207e-01  0:11:39  301
   200  1.5579e+03  4.7162e-02  1.1960e-01  3.3677e-02  3.6268e-02  1.0611e+00  5.4577e-01  0:11:58  300
   201  1.3768e+03  5.1499e-02  9.6595e-02  3.2678e-02  2.7957e-02  1.0068e+00  5.1294e-01  0:11:52  299
   202  1.6104e+03  5.0400e-02  1.1448e-01  3.7084e-02  3.4861e-02  1.0932e+00  5.5916e-01  0:12:11  298
   203  1.5801e+03  4.0141e-02  9.5591e-02  3.2158e-02  2.5925e-02  1.0007e+00  5.1138e-01  0:12:01  297
   204  1.7164e+03  3.6874e-02  9.0120e-02  3.0180e-02  2.7713e-02  1.0043e+00  5.1776e-01  0:11:52  296
   205  1.6631e+03  3.9542e-02  8.4594e-02  3.0601e-02  3.1482e-02  1.0594e+00  5.3841e-01  0:11:41  295
   206  1.7827e+03  4.1087e-02  8.6819e-02  2.9673e-02  2.4626e-02  1.0250e+00  5.2577e-01  0:11:55  294
   207  2.0536e+03  3.8790e-02  8.2426e-02  3.1933e-02  3.0288e-02  1.0033e+00  5.1886e-01  0:11:45  293
   208  2.1343e+03  3.1916e-02  8.1762e-02  2.9949e-02  3.3966e-02  9.7156e-01  5.0316e-01  0:11:39  292
   209  2.1871e+03  3.9798e-02  7.0140e-02  2.9710e-02  2.8394e-02  1.0282e+00  5.4407e-01  0:11:32  291

  iter  continuity  x-velocity  y-velocity  z-velocity      energy           k       omega     time/iter
   210  2.4806e+03  3.3631e-02  7.0082e-02  3.1561e-02  2.2421e-02  9.6030e-01  5.0674e-01  0:11:26  290
   211  2.9730e+03  2.7520e-02  5.5612e-02  2.9411e-02  2.2981e-02  8.8545e-01  4.9696e-01  0:11:17  289
   212  3.0753e+03  2.0760e-02  4.1774e-02  2.4203e-02  1.2829e-02  7.3355e-01  4.3119e-01  0:11:11  288
   213  3.4457e+03  1.6383e-02  3.4029e-02  2.4375e-02  1.3023e-02  5.6573e-01  3.7620e-01  0:11:10  287
   214  4.1169e+03  1.4524e-02  3.0417e-02  2.4451e-02  1.1943e-02  4.7068e-01  3.3659e-01  0:11:09  286
   215  5.1157e+03  1.2930e-02  2.5969e-02  2.4108e-02  1.2496e-02  4.4007e-01  3.2781e-01  0:11:04  285
   216  6.4327e+03  1.2191e-02  2.4250e-02  2.4929e-02  1.2485e-02  4.6028e-01  3.2789e-01  0:10:58  284
   217  8.0967e+03  1.1527e-02  2.2314e-02  2.4440e-02  1.1306e-02  5.0397e-01  3.2617e-01  0:10:52  283
   218  1.0420e+04  1.0926e-02  1.9916e-02  2.4727e-02  1.1799e-02  5.4299e-01  3.2212e-01  0:10:50  282
   219  1.3858e+04  1.1021e-02  1.8724e-02  2.5701e-02  1.1867e-02  5.0988e-01  3.4046e-01  0:10:50  281
   220  1.8763e+04  1.1119e-02  1.8337e-02  2.7157e-02  1.1553e-02  5.3102e-01  3.7257e-01  0:10:47  280

  iter  continuity  x-velocity  y-velocity  z-velocity      energy           k       omega     time/iter
   221  2.5886e+04  1.0553e-02  1.8041e-02  2.8551e-02  1.1103e-02  5.1594e-01  3.5964e-01  0:10:43  279
   222  3.5441e+04  1.0073e-02  1.7335e-02  2.9835e-02  1.1199e-02  4.7643e-01  3.5648e-01  0:10:40  278
   223  4.8886e+04  9.8490e-03  1.6954e-02  3.0629e-02  1.1473e-02  4.5050e-01  3.6129e-01  0:10:37  277
   224  6.8147e+04  9.7202e-03  1.6319e-02  3.0614e-02  1.1148e-02  4.2449e-01  3.4778e-01  0:10:39  276

 turbulent viscosity limited to viscosity ratio of 1.000000e+05 in 24 cells 
   225  9.4639e+04  9.9130e-03  1.4467e-02  2.8972e-02  1.1090e-02  3.7481e-01  3.4463e-01  0:10:38  275

 turbulent viscosity limited to viscosity ratio of 1.000000e+05 in 191 cells 
   226  1.2575e+05  1.0019e-02  1.4102e-02  2.7598e-02  1.2141e-02  4.0615e-01  3.4615e-01  0:10:35  274

 turbulent viscosity limited to viscosity ratio of 1.000000e+05 in 2259 cells 
   227  1.6326e+05  1.0471e-02  1.5924e-02  2.7541e-02  1.2514e-02  4.4588e-01  3.2561e-01  0:10:30  273

 turbulent viscosity limited to viscosity ratio of 1.000000e+05 in 8337 cells 
   228  2.2113e+05  1.1028e-02  1.6645e-02  2.9986e-02  1.3509e-02  4.4940e-01  3.2774e-01  0:10:26  272

 turbulent viscosity limited to viscosity ratio of 1.000000e+05 in 15146 cells 
   229  2.8688e+05  1.1888e-02  1.7274e-02  3.2630e-02  1.4950e-02  4.4158e-01  3.3943e-01  0:10:27  271

 turbulent viscosity limited to viscosity ratio of 1.000000e+05 in 20887 cells 
   230  3.7177e+05  1.3464e-02  1.9913e-02  3.4623e-02  1.6704e-02  4.8177e-01  3.4970e-01  0:10:27  270

 turbulent viscosity limited to viscosity ratio of 1.000000e+05 in 28822 cells 
   231  4.6728e+05  1.4658e-02  2.1580e-02  3.5709e-02  1.7440e-02  5.4627e-01  3.4211e-01  0:10:28  269

 turbulent viscosity limited to viscosity ratio of 1.000000e+05 in 50705 cells 

  iter  continuity  x-velocity  y-velocity  z-velocity      energy           k       omega     time/iter
   232  5.8764e+05  1.5399e-02  2.2900e-02  3.6509e-02  1.7488e-02  5.4060e-01  3.3839e-01  0:10:25  268

 turbulent viscosity limited to viscosity ratio of 1.000000e+05 in 86778 cells 
   233  7.6667e+05  1.4321e-02  2.1121e-02  3.5259e-02  1.6187e-02  5.4912e-01  3.2989e-01  0:10:21  267

 turbulent viscosity limited to viscosity ratio of 1.000000e+05 in 120182 cells 
   234  9.1268e+05  1.2155e-02  1.7902e-02  2.9928e-02  1.7497e-02  6.3178e-01  3.7981e-01  0:10:19  266

 turbulent viscosity limited to viscosity ratio of 1.000000e+05 in 141280 cells 
   235  1.1616e+06  1.2042e-02  2.0251e-02  2.9256e-02  1.7044e-02  7.9908e-01  3.9510e-01  0:10:19  265

 turbulent viscosity limited to viscosity ratio of 1.000000e+05 in 153063 cells 
   236  1.4172e+06  1.1645e-02  1.8378e-02  2.8124e-02  1.6874e-02  7.8903e-01  3.9332e-01  0:10:18  264

 turbulent viscosity limited to viscosity ratio of 1.000000e+05 in 166630 cells 
   237  1.7337e+06  1.2299e-02  1.9700e-02  3.0292e-02  1.8460e-02  8.0096e-01  4.1445e-01  0:10:14  263

 turbulent viscosity limited to viscosity ratio of 1.000000e+05 in 177542 cells 
   238  2.2417e+06  1.2734e-02  1.9884e-02  3.2398e-02  1.7524e-02  6.8510e-01  3.9014e-01  0:10:10  262

 turbulent viscosity limited to viscosity ratio of 1.000000e+05 in 197393 cells 
   239  2.9405e+06  1.3494e-02  2.1453e-02  3.3985e-02  1.6302e-02  6.6529e-01  3.8598e-01  0:10:08  261

 turbulent viscosity limited to viscosity ratio of 1.000000e+05 in 213462 cells 
   240  3.9876e+06  1.3718e-02  2.1194e-02  3.3609e-02  1.4903e-02  7.0457e-01  3.8168e-01  0:10:07  260

 turbulent viscosity limited to viscosity ratio of 1.000000e+05 in 229080 cells 
   241  5.3511e+06  1.3214e-02  1.9857e-02  3.0654e-02  1.3584e-02  6.7209e-01  3.7923e-01  0:10:08  259

 turbulent viscosity limited to viscosity ratio of 1.000000e+05 in 248450 cells 
   242  7.0208e+06  1.2287e-02  1.7901e-02  2.6733e-02  1.3493e-02  6.6851e-01  3.7375e-01  0:10:04  258

 turbulent viscosity limited to viscosity ratio of 1.000000e+05 in 261077 cells 

  iter  continuity  x-velocity  y-velocity  z-velocity      energy           k       omega     time/iter
   243  9.0411e+06  1.1601e-02  1.7684e-02  2.4069e-02  1.5383e-02  7.3553e-01  3.8451e-01  0:09:59  257

 turbulent viscosity limited to viscosity ratio of 1.000000e+05 in 269910 cells 
   244  1.1843e+07  1.1475e-02  1.9135e-02  2.4707e-02  1.6572e-02  8.0615e-01  3.8612e-01  0:09:55  256

 turbulent viscosity limited to viscosity ratio of 1.000000e+05 in 276312 cells 
   245  1.5010e+07  1.1784e-02  1.9419e-02  2.5348e-02  1.7502e-02  7.9311e-01  3.9156e-01  0:09:52  255

 turbulent viscosity limited to viscosity ratio of 1.000000e+05 in 282359 cells 
   246  1.8130e+07  1.2852e-02  1.9727e-02  2.6852e-02  1.7478e-02  7.9943e-01  4.1558e-01  0:09:52  254

 turbulent viscosity limited to viscosity ratio of 1.000000e+05 in 288168 cells 
   247  2.2337e+07  1.3734e-02  2.0295e-02  2.7123e-02  1.8908e-02  8.7530e-01  4.4514e-01  0:09:51  253

 turbulent viscosity limited to viscosity ratio of 1.000000e+05 in 293584 cells 
   248  2.6691e+07  1.4275e-02  2.0213e-02  2.8011e-02  1.9500e-02  8.7688e-01  4.5946e-01  0:09:51  252

 turbulent viscosity limited to viscosity ratio of 1.000000e+05 in 301697 cells 
   249  3.2207e+07  1.4229e-02  2.1086e-02  2.8085e-02  2.0469e-02  7.8559e-01  4.2715e-01  0:09:49  251

 turbulent viscosity limited to viscosity ratio of 1.000000e+05 in 303214 cells 
   250  3.8524e+07  1.3977e-02  2.0675e-02  2.6934e-02  2.1946e-02  7.9036e-01  4.3101e-01  0:09:45  250

 turbulent viscosity limited to viscosity ratio of 1.000000e+05 in 303443 cells 
   251  4.8535e+07  1.4225e-02  2.0527e-02  2.5921e-02  2.2750e-02  8.6142e-01  4.1291e-01  0:09:41  249

 absolute pressure limited to 5.000000e+10 in 7 cells on zone 1386 

 turbulent viscosity limited to viscosity ratio of 1.000000e+05 in 305098 cells 
   252  6.1249e+07  1.4007e-02  1.9962e-02  2.7199e-02  2.4207e-02  8.8217e-01  4.2813e-01  0:09:40  248

 absolute pressure limited to 5.000000e+10 in 16 cells on zone 1386 

 turbulent viscosity limited to viscosity ratio of 1.000000e+05 in 305942 cells 
   253  7.1141e+07  1.3724e-02  1.9045e-02  2.5969e-02  2.2731e-02  8.8090e-01  4.1169e-01  0:09:39  247

 absolute pressure limited to 5.000000e+10 in 21 cells on zone 1386 

 turbulent viscosity limited to viscosity ratio of 1.000000e+05 in 298418 cells 

  iter  continuity  x-velocity  y-velocity  z-velocity      energy           k       omega     time/iter
   254  8.4001e+07  1.3216e-02  1.9722e-02  2.5749e-02  2.2218e-02  8.6170e-01  4.1505e-01  0:09:36  246

 absolute pressure limited to 5.000000e+10 in 28 cells on zone 1386 

 turbulent viscosity limited to viscosity ratio of 1.000000e+05 in 295438 cells 
   255  1.0013e+08  1.2755e-02  1.8297e-02  2.5529e-02  2.1914e-02  9.0219e-01  4.4451e-01  0:09:33  245

 absolute pressure limited to 5.000000e+10 in 74 cells on zone 1386 

 turbulent viscosity limited to viscosity ratio of 1.000000e+05 in 299296 cells 
   256  1.2114e+08  1.3374e-02  1.9419e-02  2.7532e-02  2.1594e-02  8.9439e-01  4.4397e-01  0:09:29  244

 absolute pressure limited to 5.000000e+10 in 138 cells on zone 1386 

 turbulent viscosity limited to viscosity ratio of 1.000000e+05 in 306370 cells 
   257  1.5208e+08  1.3169e-02  2.0609e-02  2.8277e-02  2.2529e-02  9.4200e-01  4.5970e-01  0:09:27  243

 absolute pressure limited to 5.000000e+10 in 274 cells on zone 1386 

 turbulent viscosity limited to viscosity ratio of 1.000000e+05 in 310691 cells 
   258  1.9293e+08  1.3223e-02  2.2439e-02  2.9695e-02  2.2622e-02  9.6725e-01  4.6571e-01  0:09:26  242

 absolute pressure limited to 5.000000e+10 in 10011 cells on zone 1386 

 turbulent viscosity limited to viscosity ratio of 1.000000e+05 in 310361 cells 
   259  2.1136e+08  1.3478e-02  2.2637e-02  2.9807e-02  2.3357e-02  9.2302e-01  4.4244e-01  0:09:25  241

 absolute pressure limited to 5.000000e+10 in 23188 cells on zone 1386 

 turbulent viscosity limited to viscosity ratio of 1.000000e+05 in 309339 cells 
   260  2.3154e+08  1.5189e-02  2.5631e-02  3.0491e-02  2.5407e-02  9.1029e-01  4.1724e-01  0:09:22  240

 absolute pressure limited to 5.000000e+10 in 48249 cells on zone 1386 

 turbulent viscosity limited to viscosity ratio of 1.000000e+05 in 310530 cells 
   261  2.4601e+08  1.7615e-02  2.7740e-02  3.3246e-02  2.6534e-02  9.3042e-01  4.3704e-01  0:09:19  239

 absolute pressure limited to 5.000000e+10 in 131466 cells on zone 1386 

 turbulent viscosity limited to viscosity ratio of 1.000000e+05 in 314372 cells 
   262  2.4690e+08  1.9772e-02  3.2561e-02  3.7194e-02  3.1913e-02  9.6254e-01  4.6072e-01  0:09:15  238

 absolute pressure limited to 5.000000e+10 in 242028 cells on zone 1386 

 turbulent viscosity limited to viscosity ratio of 1.000000e+05 in 319308 cells 
   263  2.3803e+08  2.2173e-02  3.7056e-02  4.0196e-02  3.1550e-02  9.7718e-01  4.7795e-01  0:09:20  237

 absolute pressure limited to 5.000000e+10 in 353346 cells on zone 1386 

 turbulent viscosity limited to viscosity ratio of 1.000000e+05 in 315416 cells 
   264  2.3350e+08  2.5794e-02  4.2689e-02  4.6586e-02  4.1042e-02  9.8833e-01  4.8910e-01  0:09:18  236

 absolute pressure limited to 5.000000e+10 in 353688 cells on zone 1386 

 turbulent viscosity limited to viscosity ratio of 1.000000e+05 in 310263 cells 

  iter  continuity  x-velocity  y-velocity  z-velocity      energy           k       omega     time/iter
   265  2.3432e+08  2.8685e-02  4.7975e-02  4.6137e-02  4.3330e-02  9.9713e-01  4.9704e-01  0:09:18  235

 absolute pressure limited to 5.000000e+10 in 378699 cells on zone 1386 

 turbulent viscosity limited to viscosity ratio of 1.000000e+05 in 300819 cells 
   266  2.6653e+08  2.7152e-02  5.0622e-02  4.5103e-02  4.8946e-02  9.9924e-01  4.9904e-01  0:09:18  234

 absolute pressure limited to 5.000000e+10 in 418058 cells on zone 1386 

 turbulent viscosity limited to viscosity ratio of 1.000000e+05 in 305065 cells 
   267  2.7443e+08  2.6421e-02  5.9229e-02  4.3716e-02  4.9564e-02  9.9532e-01  4.9701e-01  0:09:15  233

 absolute pressure limited to 5.000000e+10 in 420892 cells on zone 1386 

 turbulent viscosity limited to viscosity ratio of 1.000000e+05 in 319863 cells 
   268  3.1455e+08  2.9014e-02  6.4193e-02  4.7796e-02  4.0835e-02  9.9068e-01  4.9538e-01  0:09:12  232

 absolute pressure limited to 5.000000e+10 in 421143 cells on zone 1386 

 turbulent viscosity limited to viscosity ratio of 1.000000e+05 in 327875 cells 
   269  3.6595e+08  2.7631e-02  5.7661e-02  5.3022e-02  4.4055e-02  1.0001e+00  4.9732e-01  0:09:07  231

 absolute pressure limited to 5.000000e+10 in 421191 cells on zone 1386 

 turbulent viscosity limited to viscosity ratio of 1.000000e+05 in 334143 cells 
   270  3.9249e+08  2.7299e-02  5.2869e-02  5.5211e-02  4.1027e-02  9.9877e-01  4.9750e-01  0:09:05  230

 absolute pressure limited to 5.000000e+10 in 421212 cells on zone 1386 

 turbulent viscosity limited to viscosity ratio of 1.000000e+05 in 338029 cells 
   271  4.3320e+08  2.7462e-02  5.3054e-02  5.9732e-02  3.5428e-02  9.9896e-01  4.9680e-01  0:09:18  229

 absolute pressure limited to 5.000000e+10 in 421183 cells on zone 1386 

 turbulent viscosity limited to viscosity ratio of 1.000000e+05 in 342534 cells 
   272  4.0951e+08  2.8427e-02  6.2307e-02  6.8026e-02  3.3907e-02  9.9963e-01  4.9926e-01  0:09:28  228

 absolute pressure limited to 5.000000e+10 in 421133 cells on zone 1386 

 turbulent viscosity limited to viscosity ratio of 1.000000e+05 in 343534 cells 
   273  3.4699e+08  2.9359e-02  6.1220e-02  6.9702e-02  3.5735e-02  9.9761e-01  4.9800e-01  0:09:35  227

 absolute pressure limited to 5.000000e+10 in 421142 cells on zone 1386 

 turbulent viscosity limited to viscosity ratio of 1.000000e+05 in 345780 cells 
   274  3.2909e+08  3.2556e-02  6.4754e-02  7.3308e-02  4.3308e-02  1.0055e+00  5.0107e-01  0:09:41  226

 absolute pressure limited to 5.000000e+10 in 421109 cells on zone 1386 

 turbulent viscosity limited to viscosity ratio of 1.000000e+05 in 336416 cells 
   275  3.4250e+08  3.4755e-02  6.9907e-02  6.9600e-02  4.3362e-02  1.0018e+00  5.0058e-01  0:09:46  225

 absolute pressure limited to 5.000000e+10 in 421091 cells on zone 1386 

 turbulent viscosity limited to viscosity ratio of 1.000000e+05 in 330274 cells 

  iter  continuity  x-velocity  y-velocity  z-velocity      energy           k       omega     time/iter
   276  3.3740e+08  3.4954e-02  7.1503e-02  6.7538e-02  4.4372e-02  1.0014e+00  5.0056e-01  0:09:50  224

 absolute pressure limited to 5.000000e+10 in 421123 cells on zone 1386 

 turbulent viscosity limited to viscosity ratio of 1.000000e+05 in 324463 cells 
   277  3.5097e+08  3.8195e-02  7.6168e-02  6.9910e-02  5.3746e-02  1.0024e+00  5.0092e-01  0:09:52  223

 absolute pressure limited to 5.000000e+10 in 421118 cells on zone 1386 

 turbulent viscosity limited to viscosity ratio of 1.000000e+05 in 317354 cells 
   278  3.6228e+08  3.5451e-02  7.4784e-02  6.8809e-02  4.5956e-02  1.0003e+00  4.9989e-01  0:09:53  222

 absolute pressure limited to 5.000000e+10 in 421094 cells on zone 1386 

 turbulent viscosity limited to viscosity ratio of 1.000000e+05 in 314764 cells 
   279  3.7285e+08  3.4416e-02  7.3605e-02  6.6638e-02  4.7155e-02  1.0046e+00  5.0080e-01  0:09:53  221

 absolute pressure limited to 5.000000e+10 in 421089 cells on zone 1386 

 turbulent viscosity limited to viscosity ratio of 1.000000e+05 in 323344 cells 
   280  3.8604e+08  3.5763e-02  7.5883e-02  6.9524e-02  4.7850e-02  1.0041e+00  5.0037e-01  0:09:53  220

 absolute pressure limited to 5.000000e+10 in 421105 cells on zone 1386 

 turbulent viscosity limited to viscosity ratio of 1.000000e+05 in 334461 cells 
   281  4.0128e+08  3.5264e-02  7.2168e-02  6.8891e-02  4.4651e-02  1.0124e+00  5.0217e-01  0:09:53  219

 absolute pressure limited to 5.000000e+10 in 421085 cells on zone 1386 

 turbulent viscosity limited to viscosity ratio of 1.000000e+05 in 336561 cells 
   282  4.1472e+08  3.5348e-02  7.4190e-02  6.5799e-02  4.8500e-02  1.0031e+00  5.0111e-01  0:09:51  218

 absolute pressure limited to 5.000000e+10 in 421099 cells on zone 1386 

 turbulent viscosity limited to viscosity ratio of 1.000000e+05 in 345748 cells 
   283  4.1783e+08  3.5897e-02  7.6910e-02  6.2484e-02  4.7058e-02  1.0006e+00  4.9988e-01  0:09:50  217

 absolute pressure limited to 5.000000e+10 in 421110 cells on zone 1386 

 turbulent viscosity limited to viscosity ratio of 1.000000e+05 in 353293 cells 
   284  4.4161e+08  3.5531e-02  7.4679e-02  6.5061e-02  4.4170e-02  1.0042e+00  5.0007e-01  0:09:48  216

 absolute pressure limited to 5.000000e+10 in 421097 cells on zone 1386 

 turbulent viscosity limited to viscosity ratio of 1.000000e+05 in 352811 cells 
   285  4.5956e+08  3.3169e-02  7.0169e-02  6.4125e-02  4.6541e-02  1.0037e+00  4.9981e-01  0:09:46  215

 absolute pressure limited to 5.000000e+10 in 421103 cells on zone 1386 

 turbulent viscosity limited to viscosity ratio of 1.000000e+05 in 356629 cells 
   286  4.7177e+08  3.3852e-02  6.9842e-02  6.4486e-02  4.6432e-02  1.0024e+00  5.0100e-01  0:09:43  214

 absolute pressure limited to 5.000000e+10 in 421112 cells on zone 1386 

 turbulent viscosity limited to viscosity ratio of 1.000000e+05 in 362789 cells 

  iter  continuity  x-velocity  y-velocity  z-velocity      energy           k       omega     time/iter
   287  5.1759e+08  3.4946e-02  7.3763e-02  6.2336e-02  4.4700e-02  1.0042e+00  5.0144e-01  0:09:40  213

 absolute pressure limited to 5.000000e+10 in 421097 cells on zone 1386 

 turbulent viscosity limited to viscosity ratio of 1.000000e+05 in 365448 cells 
   288  5.0739e+08  3.1899e-02  6.6817e-02  6.0146e-02  4.5429e-02  1.0125e+00  5.0292e-01  0:09:37  212

 absolute pressure limited to 5.000000e+10 in 421094 cells on zone 1386 

 turbulent viscosity limited to viscosity ratio of 1.000000e+05 in 374303 cells 
   289  5.2840e+08  3.1651e-02  6.3311e-02  6.1974e-02  4.5498e-02  1.0015e+00  5.0079e-01  0:09:33  211

 absolute pressure limited to 5.000000e+10 in 421099 cells on zone 1386 

 turbulent viscosity limited to viscosity ratio of 1.000000e+05 in 377080 cells 
   290  5.6074e+08  3.1786e-02  6.5395e-02  5.8239e-02  4.3394e-02  1.0006e+00  4.9978e-01  0:09:30  210

 absolute pressure limited to 5.000000e+10 in 421102 cells on zone 1386 

 turbulent viscosity limited to viscosity ratio of 1.000000e+05 in 379607 cells 
   291  5.5400e+08  3.1680e-02  6.5996e-02  5.4573e-02  4.7417e-02  9.9994e-01  4.9970e-01  0:09:28  209

 absolute pressure limited to 5.000000e+10 in 421084 cells on zone 1386 

 turbulent viscosity limited to viscosity ratio of 1.000000e+05 in 380652 cells 
   292  5.3963e+08  3.0313e-02  6.4999e-02  5.8602e-02  4.8411e-02  1.0009e+00  4.9970e-01  0:09:24  208

 absolute pressure limited to 5.000000e+10 in 421097 cells on zone 1386 

 turbulent viscosity limited to viscosity ratio of 1.000000e+05 in 380253 cells 
   293  5.9589e+08  3.1256e-02  6.7203e-02  5.8844e-02  4.3904e-02  1.0131e+00  5.0161e-01  0:09:23  207

 absolute pressure limited to 5.000000e+10 in 421072 cells on zone 1386 

 turbulent viscosity limited to viscosity ratio of 1.000000e+05 in 378474 cells 
   294  6.0974e+08  2.9487e-02  6.2186e-02  5.7004e-02  4.4674e-02  1.0020e+00  5.0032e-01  0:09:23  206

 absolute pressure limited to 5.000000e+10 in 421081 cells on zone 1386 

 turbulent viscosity limited to viscosity ratio of 1.000000e+05 in 374488 cells 
   295  5.8808e+08  2.9784e-02  6.2414e-02  5.7473e-02  4.7101e-02  1.0035e+00  5.0010e-01  0:09:21  205

 absolute pressure limited to 5.000000e+10 in 421127 cells on zone 1386 

 turbulent viscosity limited to viscosity ratio of 1.000000e+05 in 373572 cells 
   296  6.7630e+08  3.0139e-02  6.7604e-02  5.5651e-02  4.5306e-02  1.0020e+00  4.9890e-01  0:09:19  204

 absolute pressure limited to 5.000000e+10 in 421054 cells on zone 1386 

 turbulent viscosity limited to viscosity ratio of 1.000000e+05 in 379456 cells 
   297  6.6083e+08  2.8788e-02  6.2895e-02  5.5736e-02  4.4359e-02  1.0026e+00  5.0048e-01  0:09:15  203

 absolute pressure limited to 5.000000e+10 in 421088 cells on zone 1386 

 turbulent viscosity limited to viscosity ratio of 1.000000e+05 in 382160 cells 

  iter  continuity  x-velocity  y-velocity  z-velocity      energy           k       omega     time/iter
   298  6.5615e+08  2.8582e-02  6.0808e-02  5.6200e-02  4.5759e-02  1.0013e+00  4.9960e-01  0:09:11  202

 absolute pressure limited to 5.000000e+10 in 421108 cells on zone 1386 

 turbulent viscosity limited to viscosity ratio of 1.000000e+05 in 379122 cells 
   299  7.1776e+08  2.9490e-02  6.5417e-02  5.6258e-02  4.5330e-02  9.9992e-01  4.9936e-01  0:09:09  201

 absolute pressure limited to 5.000000e+10 in 421061 cells on zone 1386 

 turbulent viscosity limited to viscosity ratio of 1.000000e+05 in 379265 cells 
   300  7.4069e+08  2.8068e-02  6.1229e-02  5.9920e-02  4.3481e-02  1.0034e+00  4.9961e-01  0:09:07  200

 absolute pressure limited to 5.000000e+10 in 421081 cells on zone 1386 

 turbulent viscosity limited to viscosity ratio of 1.000000e+05 in 378604 cells 
   301  7.1858e+08  2.8565e-02  6.3266e-02  5.5877e-02  4.9808e-02  1.0064e+00  5.0083e-01  0:09:05  199

 absolute pressure limited to 5.000000e+10 in 421089 cells on zone 1386 

 turbulent viscosity limited to viscosity ratio of 1.000000e+05 in 375906 cells 
   302  7.7059e+08  3.1062e-02  6.7706e-02  5.7941e-02  4.5693e-02  1.0224e+00  5.0493e-01  0:09:02  198

 absolute pressure limited to 5.000000e+10 in 421075 cells on zone 1386 

 turbulent viscosity limited to viscosity ratio of 1.000000e+05 in 377531 cells 
   303  8.7017e+08  2.9376e-02  6.2911e-02  5.7903e-02  4.9108e-02  1.0003e+00  4.9998e-01  0:08:59  197

 absolute pressure limited to 5.000000e+10 in 421065 cells on zone 1386 

 turbulent viscosity limited to viscosity ratio of 1.000000e+05 in 381434 cells 
   304  8.6619e+08  2.8573e-02  6.2304e-02  5.6400e-02  4.8682e-02  1.0003e+00  4.9988e-01  0:08:56  196

 absolute pressure limited to 5.000000e+10 in 421105 cells on zone 1386 

 turbulent viscosity limited to viscosity ratio of 1.000000e+05 in 380320 cells 
   305  9.3408e+08  2.9603e-02  6.7183e-02  4.9119e-02  4.5346e-02  1.0027e+00  5.0045e-01  0:08:53  195

 absolute pressure limited to 5.000000e+10 in 421099 cells on zone 1386 

 turbulent viscosity limited to viscosity ratio of 1.000000e+05 in 385587 cells 
   306  9.8229e+08  2.9362e-02  6.5694e-02  4.8027e-02  6.4225e-02  1.0009e+00  4.9997e-01  0:08:36  194

 absolute pressure limited to 5.000000e+10 in 421171 cells on zone 1386 

 turbulent viscosity limited to viscosity ratio of 1.000000e+05 in 393391 cells 
   307  1.1027e+09  2.7655e-02  5.9676e-02  4.5161e-02  5.3489e-02  9.9976e-01  4.9906e-01  0:08:22  193

 absolute pressure limited to 5.000000e+10 in 421202 cells on zone 1386 

 turbulent viscosity limited to viscosity ratio of 1.000000e+05 in 393574 cells 
   308  1.3761e+09  2.4396e-02  5.5552e-02  5.1172e-02  4.1072e-02  9.9288e-01  4.9600e-01  0:08:10  192

 absolute pressure limited to 5.000000e+10 in 421224 cells on zone 1386 

 turbulent viscosity limited to viscosity ratio of 1.000000e+05 in 394955 cells 

  iter  continuity  x-velocity  y-velocity  z-velocity      energy           k       omega     time/iter
   309  1.5324e+09  2.2822e-02  5.6161e-02  5.0797e-02  3.3587e-02  9.8974e-01  4.9355e-01  0:07:58  191

 absolute pressure limited to 5.000000e+10 in 421222 cells on zone 1386 

 turbulent viscosity limited to viscosity ratio of 1.000000e+05 in 399450 cells 
   310  1.5481e+09  2.1550e-02  5.6477e-02  5.2553e-02  2.8808e-02  9.6345e-01  4.8665e-01  0:07:48  190

 absolute pressure limited to 5.000000e+10 in 421202 cells on zone 1386 

 turbulent viscosity limited to viscosity ratio of 1.000000e+05 in 406854 cells 
   311  1.4864e+09  2.0568e-02  5.3803e-02  5.5078e-02  2.5969e-02  9.9478e-01  4.9530e-01  0:07:41  189

 absolute pressure limited to 5.000000e+10 in 421210 cells on zone 1386 

 turbulent viscosity limited to viscosity ratio of 1.000000e+05 in 408675 cells 
   312  1.4108e+09  2.0539e-02  4.9663e-02  5.6610e-02  2.6817e-02  9.9266e-01  4.9480e-01  0:07:37  188

 absolute pressure limited to 5.000000e+10 in 421184 cells on zone 1386 

 turbulent viscosity limited to viscosity ratio of 1.000000e+05 in 410376 cells 
   313  1.4064e+09  2.0523e-02  4.7626e-02  5.9571e-02  2.7098e-02  9.8353e-01  4.9051e-01  0:07:32  187

 absolute pressure limited to 5.000000e+10 in 421209 cells on zone 1386 

 turbulent viscosity limited to viscosity ratio of 1.000000e+05 in 411731 cells 
   314  1.4301e+09  2.1562e-02  4.9228e-02  5.8840e-02  2.8294e-02  9.9418e-01  4.9488e-01  0:07:26  186

 absolute pressure limited to 5.000000e+10 in 421200 cells on zone 1386 

 turbulent viscosity limited to viscosity ratio of 1.000000e+05 in 412349 cells 
   315  1.4180e+09  2.1702e-02  5.0367e-02  5.8102e-02  2.7004e-02  9.9476e-01  4.9537e-01  0:07:19  185

 absolute pressure limited to 5.000000e+10 in 421202 cells on zone 1386 

 turbulent viscosity limited to viscosity ratio of 1.000000e+05 in 413309 cells 
   316  1.4540e+09  2.1950e-02  5.2267e-02  5.4364e-02  2.7185e-02  9.8533e-01  4.9186e-01  0:07:15  184

 absolute pressure limited to 5.000000e+10 in 421204 cells on zone 1386 

 turbulent viscosity limited to viscosity ratio of 1.000000e+05 in 414198 cells 
   317  1.3932e+09  2.1347e-02  5.1263e-02  5.3853e-02  2.7351e-02  9.9364e-01  4.9475e-01  0:07:14  183

 absolute pressure limited to 5.000000e+10 in 421205 cells on zone 1386 

 turbulent viscosity limited to viscosity ratio of 1.000000e+05 in 415068 cells 
   318  1.3972e+09  2.1814e-02  5.2531e-02  5.2938e-02  2.8800e-02  9.9154e-01  4.9368e-01  0:07:10  182

 absolute pressure limited to 5.000000e+10 in 421188 cells on zone 1386 

 turbulent viscosity limited to viscosity ratio of 1.000000e+05 in 416740 cells 
   319  1.3599e+09  2.2709e-02  5.1296e-02  5.4794e-02  3.0538e-02  9.9478e-01  4.9594e-01  0:07:07  181

 absolute pressure limited to 5.000000e+10 in 421203 cells on zone 1386 

 turbulent viscosity limited to viscosity ratio of 1.000000e+05 in 416633 cells 

  iter  continuity  x-velocity  y-velocity  z-velocity      energy           k       omega     time/iter
   320  1.3868e+09  2.1978e-02  5.3270e-02  5.6756e-02  2.9703e-02  9.9749e-01  4.9748e-01  0:07:03  180

 absolute pressure limited to 5.000000e+10 in 421216 cells on zone 1386 

 turbulent viscosity limited to viscosity ratio of 1.000000e+05 in 416751 cells 
   321  1.5130e+09  2.3530e-02  5.3481e-02  5.5722e-02  2.5675e-02  9.9021e-01  4.9422e-01  0:07:00  179

 absolute pressure limited to 5.000000e+10 in 421213 cells on zone 1386 

 turbulent viscosity limited to viscosity ratio of 1.000000e+05 in 416748 cells 
   322  1.4573e+09  2.1606e-02  5.2448e-02  4.9870e-02  2.4818e-02  9.9205e-01  4.9387e-01  0:06:57  178

 absolute pressure limited to 5.000000e+10 in 421205 cells on zone 1386 

 turbulent viscosity limited to viscosity ratio of 1.000000e+05 in 416815 cells 
   323  1.3754e+09  2.1182e-02  5.2428e-02  4.8154e-02  2.5582e-02  9.9618e-01  4.9663e-01  0:06:53  177

 absolute pressure limited to 5.000000e+10 in 421202 cells on zone 1386 

 turbulent viscosity limited to viscosity ratio of 1.000000e+05 in 416873 cells 
   324  1.3674e+09  2.1420e-02  5.0110e-02  4.8935e-02  2.6786e-02  9.9138e-01  4.9456e-01  0:06:49  176

 absolute pressure limited to 5.000000e+10 in 421182 cells on zone 1386 

 turbulent viscosity limited to viscosity ratio of 1.000000e+05 in 416853 cells 
   325  1.3097e+09  2.0474e-02  4.7834e-02  5.1696e-02  2.9405e-02  9.8160e-01  4.9090e-01  0:06:46  175

 absolute pressure limited to 5.000000e+10 in 421212 cells on zone 1386 

 turbulent viscosity limited to viscosity ratio of 1.000000e+05 in 416891 cells 
   326  1.3521e+09  2.1489e-02  4.9908e-02  5.4811e-02  2.8826e-02  9.9881e-01  4.9888e-01  0:06:44  174

 absolute pressure limited to 5.000000e+10 in 421204 cells on zone 1386 

 turbulent viscosity limited to viscosity ratio of 1.000000e+05 in 416987 cells 
   327  1.4460e+09  2.1493e-02  5.0218e-02  5.4908e-02  2.6950e-02  9.9479e-01  4.9753e-01  0:06:42  173

 absolute pressure limited to 5.000000e+10 in 421212 cells on zone 1386 

 turbulent viscosity limited to viscosity ratio of 1.000000e+05 in 416655 cells 
   328  1.4619e+09  1.9828e-02  4.9845e-02  5.3552e-02  2.8201e-02  9.9895e-01  4.9894e-01  0:06:43  172

 absolute pressure limited to 5.000000e+10 in 421211 cells on zone 1386 

 turbulent viscosity limited to viscosity ratio of 1.000000e+05 in 416673 cells 
   329  1.4634e+09  2.2201e-02  5.1522e-02  5.1831e-02  2.6895e-02  9.9540e-01  4.9800e-01  0:06:40  171

 absolute pressure limited to 5.000000e+10 in 421200 cells on zone 1386 

 turbulent viscosity limited to viscosity ratio of 1.000000e+05 in 416619 cells 
   330  1.4569e+09  2.1280e-02  5.1375e-02  5.2489e-02  2.8085e-02  9.9610e-01  4.9733e-01  0:06:35  170

 absolute pressure limited to 5.000000e+10 in 421196 cells on zone 1386 

 turbulent viscosity limited to viscosity ratio of 1.000000e+05 in 416475 cells 

  iter  continuity  x-velocity  y-velocity  z-velocity      energy           k       omega     time/iter
   331  1.4416e+09  2.1151e-02  5.0313e-02  5.4169e-02  2.9094e-02  9.9370e-01  4.9643e-01  0:06:33  169

 absolute pressure limited to 5.000000e+10 in 421212 cells on zone 1386 

 turbulent viscosity limited to viscosity ratio of 1.000000e+05 in 416910 cells 
   332  1.4559e+09  2.1440e-02  4.9349e-02  5.7170e-02  2.9927e-02  9.9317e-01  4.9546e-01  0:06:31  168

 absolute pressure limited to 5.000000e+10 in 421209 cells on zone 1386 

 turbulent viscosity limited to viscosity ratio of 1.000000e+05 in 416963 cells 
   333  1.5241e+09  2.2130e-02  5.2031e-02  5.6127e-02  2.7831e-02  9.8450e-01  4.9100e-01  0:06:29  167

 absolute pressure limited to 5.000000e+10 in 421224 cells on zone 1386 

 turbulent viscosity limited to viscosity ratio of 1.000000e+05 in 417043 cells 
   334  1.5678e+09  2.1150e-02  5.2262e-02  5.4651e-02  2.8548e-02  9.8737e-01  4.8942e-01  0:06:27  166

 absolute pressure limited to 5.000000e+10 in 421198 cells on zone 1386 

 turbulent viscosity limited to viscosity ratio of 1.000000e+05 in 416877 cells 
   335  1.5163e+09  2.0677e-02  5.0526e-02  5.3503e-02  2.9214e-02  9.6569e-01  4.8128e-01  0:06:25  165

 absolute pressure limited to 5.000000e+10 in 421208 cells on zone 1386 

 turbulent viscosity limited to viscosity ratio of 1.000000e+05 in 416978 cells 
   336  1.4946e+09  2.0748e-02  4.9500e-02  5.4613e-02  3.1449e-02  9.9681e-01  4.9677e-01  0:06:23  164

 absolute pressure limited to 5.000000e+10 in 421190 cells on zone 1386 

 turbulent viscosity limited to viscosity ratio of 1.000000e+05 in 416851 cells 
   337  1.5248e+09  2.1181e-02  4.9162e-02  5.4665e-02  3.0211e-02  9.9857e-01  4.9822e-01  0:06:21  163

 absolute pressure limited to 5.000000e+10 in 421201 cells on zone 1386 

 turbulent viscosity limited to viscosity ratio of 1.000000e+05 in 416907 cells 
   338  1.5104e+09  1.9694e-02  4.8593e-02  5.5636e-02  3.1277e-02  9.9374e-01  4.9636e-01  0:06:18  162

 absolute pressure limited to 5.000000e+10 in 421191 cells on zone 1386 

 turbulent viscosity limited to viscosity ratio of 1.000000e+05 in 416798 cells 
   339  1.6036e+09  2.0913e-02  5.1014e-02  5.4194e-02  2.9973e-02  9.9473e-01  4.9590e-01  0:06:19  161

 absolute pressure limited to 5.000000e+10 in 421208 cells on zone 1386 

 turbulent viscosity limited to viscosity ratio of 1.000000e+05 in 416766 cells 
   340  1.6668e+09  2.1386e-02  5.2194e-02  5.1106e-02  2.8191e-02  9.9003e-01  4.9462e-01  0:06:17  160

 absolute pressure limited to 5.000000e+10 in 421205 cells on zone 1386 

 turbulent viscosity limited to viscosity ratio of 1.000000e+05 in 416789 cells 
   341  1.6605e+09  2.0155e-02  4.9475e-02  5.2511e-02  2.8371e-02  9.9810e-01  4.9837e-01  0:06:13  159

 absolute pressure limited to 5.000000e+10 in 421214 cells on zone 1386 

 turbulent viscosity limited to viscosity ratio of 1.000000e+05 in 416796 cells 

  iter  continuity  x-velocity  y-velocity  z-velocity      energy           k       omega     time/iter
   342  1.6828e+09  1.9806e-02  4.7801e-02  5.0982e-02  2.8914e-02  9.9554e-01  4.9710e-01  0:06:10  158

 absolute pressure limited to 5.000000e+10 in 421214 cells on zone 1386 

 turbulent viscosity limited to viscosity ratio of 1.000000e+05 in 416846 cells 
   343  1.6532e+09  1.9124e-02  4.7246e-02  4.9757e-02  2.8489e-02  9.7819e-01  4.9324e-01  0:06:08  157

 absolute pressure limited to 5.000000e+10 in 421203 cells on zone 1386 

 turbulent viscosity limited to viscosity ratio of 1.000000e+05 in 416796 cells 
   344  1.6557e+09  1.9013e-02  4.6816e-02  4.8767e-02  2.8758e-02  9.9217e-01  4.9447e-01  0:06:05  156

 absolute pressure limited to 5.000000e+10 in 421194 cells on zone 1386 

 turbulent viscosity limited to viscosity ratio of 1.000000e+05 in 416796 cells 
   345  1.5800e+09  1.9630e-02  4.5724e-02  5.0625e-02  2.8071e-02  9.8602e-01  4.9135e-01  0:06:02  155

 absolute pressure limited to 5.000000e+10 in 421217 cells on zone 1386 

 turbulent viscosity limited to viscosity ratio of 1.000000e+05 in 416758 cells 
   346  1.6084e+09  1.9833e-02  4.6190e-02  5.1181e-02  2.9394e-02  9.9283e-01  4.9199e-01  0:05:59  154

 absolute pressure limited to 5.000000e+10 in 421204 cells on zone 1386 

 turbulent viscosity limited to viscosity ratio of 1.000000e+05 in 416779 cells 
   347  1.7077e+09  2.0848e-02  4.8444e-02  5.1753e-02  2.7610e-02  9.8310e-01  4.8529e-01  0:06:05  153

 absolute pressure limited to 5.000000e+10 in 421200 cells on zone 1386 

 turbulent viscosity limited to viscosity ratio of 1.000000e+05 in 416321 cells 
   348  1.6898e+09  1.8964e-02  4.6452e-02  4.9465e-02  2.8830e-02  9.9574e-01  4.9557e-01  0:06:00  152

 absolute pressure limited to 5.000000e+10 in 421195 cells on zone 1386 

 turbulent viscosity limited to viscosity ratio of 1.000000e+05 in 416517 cells 
   349  1.6065e+09  1.9931e-02  4.8564e-02  5.1153e-02  2.7996e-02  9.8864e-01  4.9253e-01  0:05:57  151

 absolute pressure limited to 5.000000e+10 in 421221 cells on zone 1386 

 turbulent viscosity limited to viscosity ratio of 1.000000e+05 in 416629 cells 
   350  1.7332e+09  2.0460e-02  4.9182e-02  5.3092e-02  2.6298e-02  9.7094e-01  4.8346e-01  0:05:55  150

 absolute pressure limited to 5.000000e+10 in 421214 cells on zone 1386 

 turbulent viscosity limited to viscosity ratio of 1.000000e+05 in 416635 cells 
   351  1.8113e+09  1.9135e-02  4.5216e-02  5.4059e-02  2.5431e-02  9.9483e-01  4.9475e-01  0:05:52  149

 absolute pressure limited to 5.000000e+10 in 421192 cells on zone 1386 

 turbulent viscosity limited to viscosity ratio of 1.000000e+05 in 416494 cells 
   352  1.7786e+09  1.8907e-02  4.4705e-02  5.2827e-02  2.6193e-02  9.9282e-01  4.9487e-01  0:05:48  148

 absolute pressure limited to 5.000000e+10 in 421210 cells on zone 1386 

 turbulent viscosity limited to viscosity ratio of 1.000000e+05 in 416731 cells 

  iter  continuity  x-velocity  y-velocity  z-velocity      energy           k       omega     time/iter
   353  1.8228e+09  1.9079e-02  4.5948e-02  5.3732e-02  2.7105e-02  9.9121e-01  4.9380e-01  0:05:44  147

 absolute pressure limited to 5.000000e+10 in 421210 cells on zone 1386 

 turbulent viscosity limited to viscosity ratio of 1.000000e+05 in 416259 cells 
   354  1.8576e+09  1.9070e-02  4.5951e-02  5.0966e-02  2.5969e-02  9.9234e-01  4.9350e-01  0:05:41  146

 absolute pressure limited to 5.000000e+10 in 421202 cells on zone 1386 

 turbulent viscosity limited to viscosity ratio of 1.000000e+05 in 415863 cells 
   355  1.8774e+09  1.9017e-02  4.6866e-02  4.9043e-02  2.6573e-02  9.9220e-01  4.9361e-01  0:05:39  145

 absolute pressure limited to 5.000000e+10 in 421216 cells on zone 1386 

 turbulent viscosity limited to viscosity ratio of 1.000000e+05 in 416292 cells 
   356  1.9139e+09  1.8703e-02  4.6222e-02  4.7271e-02  2.6390e-02  9.9749e-01  4.9750e-01  0:05:36  144

 absolute pressure limited to 5.000000e+10 in 421205 cells on zone 1386 

 turbulent viscosity limited to viscosity ratio of 1.000000e+05 in 416508 cells 
   357  1.9086e+09  1.9219e-02  4.7709e-02  4.6961e-02  2.7673e-02  9.8756e-01  4.9414e-01  0:05:33  143

 absolute pressure limited to 5.000000e+10 in 421194 cells on zone 1386 

 turbulent viscosity limited to viscosity ratio of 1.000000e+05 in 416532 cells 
   358  1.9070e+09  1.9363e-02  4.7618e-02  4.9002e-02  2.6366e-02  9.9683e-01  4.9715e-01  0:05:29  142

 absolute pressure limited to 5.000000e+10 in 421210 cells on zone 1386 

 turbulent viscosity limited to viscosity ratio of 1.000000e+05 in 416764 cells 
   359  1.9327e+09  1.9288e-02  4.7617e-02  4.8125e-02  2.5952e-02  9.9727e-01  4.9754e-01  0:05:27  141

 absolute pressure limited to 5.000000e+10 in 421208 cells on zone 1386 

 turbulent viscosity limited to viscosity ratio of 1.000000e+05 in 416639 cells 
   360  1.9756e+09  1.9721e-02  4.9265e-02  4.9822e-02  2.5385e-02  9.9194e-01  4.9535e-01  0:05:26  140

 absolute pressure limited to 5.000000e+10 in 421201 cells on zone 1386 

 turbulent viscosity limited to viscosity ratio of 1.000000e+05 in 416734 cells 
   361  1.9422e+09  1.8694e-02  4.7657e-02  4.6594e-02  2.4904e-02  9.9879e-01  4.9886e-01  0:05:24  139

 absolute pressure limited to 5.000000e+10 in 421185 cells on zone 1386 

 turbulent viscosity limited to viscosity ratio of 1.000000e+05 in 416857 cells 
   362  1.7990e+09  1.8061e-02  4.4247e-02  4.5059e-02  2.6692e-02  9.9378e-01  4.9780e-01  0:05:21  138

 absolute pressure limited to 5.000000e+10 in 421206 cells on zone 1386 

 turbulent viscosity limited to viscosity ratio of 1.000000e+05 in 417002 cells 
   363  1.8460e+09  1.9375e-02  4.5883e-02  4.8384e-02  2.7704e-02  9.7903e-01  4.9565e-01  0:05:18  137

 absolute pressure limited to 5.000000e+10 in 421212 cells on zone 1386 

 turbulent viscosity limited to viscosity ratio of 1.000000e+05 in 416879 cells 

  iter  continuity  x-velocity  y-velocity  z-velocity      energy           k       omega     time/iter
   364  1.9746e+09  1.9189e-02  4.6908e-02  5.0215e-02  2.7125e-02  9.9256e-01  4.9425e-01  0:05:14  136

 absolute pressure limited to 5.000000e+10 in 421200 cells on zone 1386 

 turbulent viscosity limited to viscosity ratio of 1.000000e+05 in 416786 cells 
   365  1.9918e+09  1.9170e-02  4.7155e-02  4.8478e-02  2.6907e-02  9.9557e-01  4.9576e-01  0:05:11  135

 absolute pressure limited to 5.000000e+10 in 421204 cells on zone 1386 

 turbulent viscosity limited to viscosity ratio of 1.000000e+05 in 416734 cells 
   366  1.9153e+09  1.8869e-02  4.7338e-02  4.7083e-02  2.6151e-02  9.9576e-01  4.9628e-01  0:05:10  134

 absolute pressure limited to 5.000000e+10 in 421198 cells on zone 1386 

 turbulent viscosity limited to viscosity ratio of 1.000000e+05 in 416815 cells 
   367  1.9016e+09  1.8931e-02  4.6543e-02  4.4060e-02  2.6534e-02  9.8635e-01  4.9365e-01  0:05:08  133

 absolute pressure limited to 5.000000e+10 in 421210 cells on zone 1386 

 turbulent viscosity limited to viscosity ratio of 1.000000e+05 in 416942 cells 
   368  1.9501e+09  1.8779e-02  4.6344e-02  4.4606e-02  2.7616e-02  9.9785e-01  4.9798e-01  0:05:06  132

 absolute pressure limited to 5.000000e+10 in 421190 cells on zone 1386 

 turbulent viscosity limited to viscosity ratio of 1.000000e+05 in 417048 cells 
   369  1.8687e+09  1.9074e-02  4.7270e-02  4.4398e-02  2.7771e-02  9.9627e-01  4.9715e-01  0:05:03  131

 absolute pressure limited to 5.000000e+10 in 421203 cells on zone 1386 

 turbulent viscosity limited to viscosity ratio of 1.000000e+05 in 416999 cells 
   370  1.8336e+09  1.9199e-02  4.7390e-02  4.4776e-02  2.6452e-02  9.9349e-01  4.9547e-01  0:05:01  130

 absolute pressure limited to 5.000000e+10 in 421210 cells on zone 1386 

 turbulent viscosity limited to viscosity ratio of 1.000000e+05 in 416945 cells 
   371  1.8839e+09  1.9383e-02  4.6491e-02  4.5679e-02  2.5591e-02  9.9366e-01  4.9548e-01  0:04:59  129

 absolute pressure limited to 5.000000e+10 in 421205 cells on zone 1386 

 turbulent viscosity limited to viscosity ratio of 1.000000e+05 in 416941 cells 
   372  1.8996e+09  1.8803e-02  4.5797e-02  4.6178e-02  2.5350e-02  9.8511e-01  4.8962e-01  0:04:57  128

 absolute pressure limited to 5.000000e+10 in 421207 cells on zone 1386 

 turbulent viscosity limited to viscosity ratio of 1.000000e+05 in 416867 cells 
   373  1.9103e+09  1.7761e-02  4.4222e-02  4.4599e-02  2.5187e-02  9.7647e-01  4.8370e-01  0:04:54  127

 absolute pressure limited to 5.000000e+10 in 421196 cells on zone 1386 

 turbulent viscosity limited to viscosity ratio of 1.000000e+05 in 416613 cells 
   374  1.8243e+09  1.7267e-02  4.1896e-02  4.3290e-02  2.6863e-02  9.7689e-01  4.8160e-01  0:04:51  126

 absolute pressure limited to 5.000000e+10 in 421199 cells on zone 1386 

 turbulent viscosity limited to viscosity ratio of 1.000000e+05 in 416767 cells 

  iter  continuity  x-velocity  y-velocity  z-velocity      energy           k       omega     time/iter
   375  1.7997e+09  1.8188e-02  4.4048e-02  4.2834e-02  2.8749e-02  9.7663e-01  4.7996e-01  0:04:49  125

 absolute pressure limited to 5.000000e+10 in 421198 cells on zone 1386 

 turbulent viscosity limited to viscosity ratio of 1.000000e+05 in 416805 cells 
   376  1.8150e+09  1.8753e-02  4.4543e-02  4.2077e-02  2.7639e-02  9.8901e-01  4.8257e-01  0:04:48  124

 absolute pressure limited to 5.000000e+10 in 421204 cells on zone 1386 

 turbulent viscosity limited to viscosity ratio of 1.000000e+05 in 416877 cells 
   377  1.8164e+09  1.8673e-02  4.5078e-02  4.2071e-02  2.7221e-02  9.8320e-01  4.8610e-01  0:04:46  123

 absolute pressure limited to 5.000000e+10 in 421210 cells on zone 1386 

 turbulent viscosity limited to viscosity ratio of 1.000000e+05 in 416867 cells 
   378  1.8413e+09  1.9093e-02  4.5327e-02  4.4354e-02  2.8383e-02  9.7635e-01  4.8267e-01  0:04:43  122

 absolute pressure limited to 5.000000e+10 in 421189 cells on zone 1386 

 turbulent viscosity limited to viscosity ratio of 1.000000e+05 in 416989 cells 
   379  1.8165e+09  1.9028e-02  4.7509e-02  4.5710e-02  2.8412e-02  9.6136e-01  4.6994e-01  0:04:41  121

 absolute pressure limited to 5.000000e+10 in 421202 cells on zone 1386 

 turbulent viscosity limited to viscosity ratio of 1.000000e+05 in 416920 cells 
   380  1.7943e+09  1.9740e-02  4.7510e-02  4.3853e-02  2.8731e-02  9.9937e-01  4.9930e-01  0:04:38  120

 absolute pressure limited to 5.000000e+10 in 421211 cells on zone 1386 

 turbulent viscosity limited to viscosity ratio of 1.000000e+05 in 416889 cells 
   381  1.7150e+09  2.0640e-02  4.8419e-02  4.5623e-02  2.8620e-02  9.9855e-01  4.9894e-01  0:04:35  119

 absolute pressure limited to 5.000000e+10 in 421195 cells on zone 1386 

 turbulent viscosity limited to viscosity ratio of 1.000000e+05 in 416971 cells 
   382  1.7292e+09  2.0283e-02  4.9413e-02  4.7873e-02  3.0690e-02  9.9748e-01  4.9818e-01  0:04:32  118

 absolute pressure limited to 5.000000e+10 in 421220 cells on zone 1386 

 turbulent viscosity limited to viscosity ratio of 1.000000e+05 in 416922 cells 
   383  1.8197e+09  2.0025e-02  4.9523e-02  4.7761e-02  2.8676e-02  9.9224e-01  4.9605e-01  0:04:30  117

 absolute pressure limited to 5.000000e+10 in 421200 cells on zone 1386 

 turbulent viscosity limited to viscosity ratio of 1.000000e+05 in 416778 cells 
   384  1.8283e+09  2.0105e-02  4.9028e-02  4.7095e-02  2.8177e-02  9.8337e-01  4.9308e-01  0:04:28  116

 absolute pressure limited to 5.000000e+10 in 421203 cells on zone 1386 

 turbulent viscosity limited to viscosity ratio of 1.000000e+05 in 416219 cells 
   385  1.7194e+09  2.0097e-02  4.7842e-02  4.7452e-02  2.9085e-02  9.8909e-01  4.9245e-01  0:04:26  115

 absolute pressure limited to 5.000000e+10 in 421192 cells on zone 1386 

 turbulent viscosity limited to viscosity ratio of 1.000000e+05 in 416512 cells 

  iter  continuity  x-velocity  y-velocity  z-velocity      energy           k       omega     time/iter
   386  1.7518e+09  2.0639e-02  4.9168e-02  4.9347e-02  2.6723e-02  9.9160e-01  4.9283e-01  0:04:24  114

 absolute pressure limited to 5.000000e+10 in 421210 cells on zone 1386 

 turbulent viscosity limited to viscosity ratio of 1.000000e+05 in 416594 cells 
   387  1.8506e+09  2.0463e-02  4.9465e-02  4.9186e-02  2.6159e-02  9.7497e-01  4.8579e-01  0:04:22  113

 absolute pressure limited to 5.000000e+10 in 421186 cells on zone 1386 

 turbulent viscosity limited to viscosity ratio of 1.000000e+05 in 416518 cells 
   388  1.7946e+09  1.9435e-02  4.7389e-02  4.9811e-02  2.6444e-02  9.6189e-01  4.7765e-01  0:04:19  112

 absolute pressure limited to 5.000000e+10 in 421202 cells on zone 1386 

 turbulent viscosity limited to viscosity ratio of 1.000000e+05 in 416778 cells 
   389  1.8363e+09  1.9972e-02  4.8571e-02  4.7340e-02  2.8340e-02  9.8357e-01  4.8501e-01  0:04:17  111

 absolute pressure limited to 5.000000e+10 in 421195 cells on zone 1386 

[...]
 temperature limited to 5.000000e+03 in 5187 cells on zone 1386 in domain 1
  temperature limited to 5.000000e+03 on 1001 faces

 absolute pressure limited to 5.000000e+10 in 421161 cells on zone 1386 

 turbulent viscosity limited to viscosity ratio of 1.000000e+05 in 416884 cells 
   439  3.3484e+09  1.9127e-02  5.0964e-02  3.5049e-02  4.1049e-02  9.9372e-01  4.9518e-01  0:02:22   61
 temperature limited to 5.000000e+03 in 5528 cells on zone 1386 in domain 1
  temperature limited to 5.000000e+03 on 1239 faces

 absolute pressure limited to 5.000000e+10 in 421178 cells on zone 1386 

 turbulent viscosity limited to viscosity ratio of 1.000000e+05 in 416720 cells 
   440  3.6673e+09  1.8185e-02  4.7980e-02  3.9438e-02  4.0071e-02  9.7875e-01  4.8836e-01  0:02:20   60
 temperature limited to 5.000000e+03 in 5868 cells on zone 1386 in domain 1
  temperature limited to 5.000000e+03 on 1653 faces

 absolute pressure limited to 5.000000e+10 in 421176 cells on zone 1386 

 turbulent viscosity limited to viscosity ratio of 1.000000e+05 in 416601 cells 

  iter  continuity  x-velocity  y-velocity  z-velocity      energy           k       omega     time/iter
   441  3.5978e+09  1.8120e-02  4.7876e-02  3.8187e-02  3.9561e-02  9.9538e-01  4.9572e-01  0:02:17   59
 temperature limited to 5.000000e+03 in 1825 cells on zone 1386 in domain 1
  temperature limited to 5.000000e+03 on 1182 faces

 absolute pressure limited to 5.000000e+10 in 421170 cells on zone 1386 

 turbulent viscosity limited to viscosity ratio of 1.000000e+05 in 416719 cells 
   442  3.3088e+09  1.8307e-02  4.7714e-02  3.8071e-02  4.0676e-02  9.9892e-01  4.9898e-01  0:02:15   58
 temperature limited to 5.000000e+03 in 5752 cells on zone 1386 in domain 1
  temperature limited to 5.000000e+03 on 799 faces

 absolute pressure limited to 5.000000e+10 in 421179 cells on zone 1386 

 turbulent viscosity limited to viscosity ratio of 1.000000e+05 in 416698 cells 
   443  3.4172e+09  1.9177e-02  5.0034e-02  3.8358e-02  4.1477e-02  9.9589e-01  4.9764e-01  0:02:12   57
 temperature limited to 5.000000e+03 in 5901 cells on zone 1386 in domain 1
  temperature limited to 5.000000e+03 on 1366 faces

 absolute pressure limited to 5.000000e+10 in 421164 cells on zone 1386 

 turbulent viscosity limited to viscosity ratio of 1.000000e+05 in 416587 cells 
   444  3.4094e+09  1.8745e-02  5.0145e-02  3.8988e-02  4.1257e-02  9.9170e-01  4.9556e-01  0:02:10   56
 temperature limited to 5.000000e+03 in 483 cells on zone 1386 in domain 1
  temperature limited to 5.000000e+03 on 845 faces

 absolute pressure limited to 5.000000e+10 in 421180 cells on zone 1386 

 turbulent viscosity limited to viscosity ratio of 1.000000e+05 in 416228 cells 
   445  3.1771e+09  1.7886e-02  4.7429e-02  3.7819e-02  4.1400e-02  9.9794e-01  4.9770e-01  0:02:08   55
 temperature limited to 5.000000e+03 in 5953 cells on zone 1386 in domain 1
  temperature limited to 5.000000e+03 on 130 faces

 absolute pressure limited to 5.000000e+10 in 421192 cells on zone 1386 

 turbulent viscosity limited to viscosity ratio of 1.000000e+05 in 416442 cells 
   446  3.2761e+09  1.9270e-02  5.0746e-02  3.6616e-02  3.9177e-02  9.9055e-01  4.9530e-01  0:02:06   54
 temperature limited to 5.000000e+03 in 5426 cells on zone 1386 in domain 1
  temperature limited to 5.000000e+03 on 160 faces

 absolute pressure limited to 5.000000e+10 in 421180 cells on zone 1386 

 turbulent viscosity limited to viscosity ratio of 1.000000e+05 in 416373 cells 
   447  3.3888e+09  1.9579e-02  5.2474e-02  3.4089e-02  3.6625e-02  9.7850e-01  4.9101e-01  0:02:03   53
 temperature limited to 5.000000e+03 in 5672 cells on zone 1386 in domain 1
  temperature limited to 5.000000e+03 on 351 faces

 absolute pressure limited to 5.000000e+10 in 421172 cells on zone 1386 

 turbulent viscosity limited to viscosity ratio of 1.000000e+05 in 416676 cells 
   448  3.2332e+09  1.9173e-02  5.1233e-02  3.4628e-02  3.8719e-02  9.5706e-01  4.8316e-01  0:02:01   52
 temperature limited to 5.000000e+03 in 6287 cells on zone 1386 in domain 1
  temperature limited to 5.000000e+03 on 1021 faces

 absolute pressure limited to 5.000000e+10 in 421175 cells on zone 1386 

 turbulent viscosity limited to viscosity ratio of 1.000000e+05 in 416697 cells 
   449  3.0186e+09  1.9837e-02  5.1188e-02  3.6627e-02  4.4442e-02  9.6768e-01  4.8025e-01  0:01:59   51
 temperature limited to 5.000000e+03 in 6547 cells on zone 1386 in domain 1
  temperature limited to 5.000000e+03 on 1776 faces

 absolute pressure limited to 5.000000e+10 in 421185 cells on zone 1386 

 turbulent viscosity limited to viscosity ratio of 1.000000e+05 in 416536 cells 
   450  3.1288e+09  1.9134e-02  5.0697e-02  4.0682e-02  4.2405e-02  9.9411e-01  4.9239e-01  0:01:57   50
 temperature limited to 5.000000e+03 in 1110 cells on zone 1386 in domain 1
  temperature limited to 5.000000e+03 on 1166 faces

 absolute pressure limited to 5.000000e+10 in 421180 cells on zone 1386 

 turbulent viscosity limited to viscosity ratio of 1.000000e+05 in 416234 cells 
   451  3.3789e+09  1.9889e-02  5.2243e-02  4.1834e-02  4.3854e-02  9.9863e-01  4.9882e-01  0:01:55   49
 temperature limited to 5.000000e+03 in 3179 cells on zone 1386 in domain 1
  temperature limited to 5.000000e+03 on 389 faces

 absolute pressure limited to 5.000000e+10 in 421187 cells on zone 1386 

 turbulent viscosity limited to viscosity ratio of 1.000000e+05 in 416293 cells 

  iter  continuity  x-velocity  y-velocity  z-velocity      energy           k       omega     time/iter
   452  3.4840e+09  2.0056e-02  5.3915e-02  4.2154e-02  4.0807e-02  9.9400e-01  4.9719e-01  0:01:52   48
 temperature limited to 5.000000e+03 in 5801 cells on zone 1386 in domain 1
  temperature limited to 5.000000e+03 on 366 faces

 absolute pressure limited to 5.000000e+10 in 421179 cells on zone 1386 

 turbulent viscosity limited to viscosity ratio of 1.000000e+05 in 416368 cells 
   453  3.6476e+09  1.9930e-02  5.2675e-02  4.0925e-02  3.9366e-02  9.8789e-01  4.9450e-01  0:01:49   47
 temperature limited to 5.000000e+03 in 2102 cells on zone 1386 in domain 1
  temperature limited to 5.000000e+03 on 348 faces

 absolute pressure limited to 5.000000e+10 in 421179 cells on zone 1386 

 turbulent viscosity limited to viscosity ratio of 1.000000e+05 in 416471 cells 
   454  3.7317e+09  1.9663e-02  5.2227e-02  3.9547e-02  3.9845e-02  9.8343e-01  4.9216e-01  0:01:47   46
 temperature limited to 5.000000e+03 in 5978 cells on zone 1386 in domain 1
  temperature limited to 5.000000e+03 on 420 faces

 absolute pressure limited to 5.000000e+10 in 421193 cells on zone 1386 

 turbulent viscosity limited to viscosity ratio of 1.000000e+05 in 416407 cells 
   455  3.9880e+09  1.9871e-02  5.3485e-02  3.6913e-02  3.9418e-02  9.9127e-01  4.9241e-01  0:01:44   45
 temperature limited to 5.000000e+03 in 10 cells on zone 1386 in domain 1
  temperature limited to 5.000000e+03 on 291 faces

 absolute pressure limited to 5.000000e+10 in 421189 cells on zone 1386 

 turbulent viscosity limited to viscosity ratio of 1.000000e+05 in 416289 cells 
   456  4.0929e+09  1.9947e-02  5.3247e-02  3.5619e-02  4.0448e-02  9.7714e-01  4.8655e-01  0:01:42   44

 absolute pressure limited to 5.000000e+10 in 421214 cells on zone 1386 

 turbulent viscosity limited to viscosity ratio of 1.000000e+05 in 416000 cells 
   457  4.2573e+09  2.0300e-02  5.4013e-02  3.6262e-02  4.1436e-02  9.9069e-01  4.8947e-01  0:01:40   43

 absolute pressure limited to 5.000000e+10 in 421178 cells on zone 1386 

 turbulent viscosity limited to viscosity ratio of 1.000000e+05 in 415770 cells 
   458  4.5535e+09  2.1254e-02  5.7286e-02  3.5802e-02  3.7906e-02  9.7925e-01  4.8672e-01  0:01:38   42
 temperature limited to 5.000000e+03 in 1657 cells on zone 1386 in domain 1
 
 absolute pressure limited to 5.000000e+10 in 421191 cells on zone 1386 

 turbulent viscosity limited to viscosity ratio of 1.000000e+05 in 415569 cells 
   459  4.8193e+09  2.1372e-02  5.6904e-02  3.8678e-02  3.8467e-02  9.9249e-01  4.9451e-01  0:01:35   41
 temperature limited to 5.000000e+03 in 2698 cells on zone 1386 in domain 1
 
 absolute pressure limited to 5.000000e+10 in 421171 cells on zone 1386 

 turbulent viscosity limited to viscosity ratio of 1.000000e+05 in 415779 cells 
   460  5.5043e+09  2.0924e-02  5.5193e-02  3.6936e-02  3.6518e-02  9.9898e-01  4.9834e-01  0:01:33   40
 temperature limited to 5.000000e+03 in 311 cells on zone 1386 in domain 1
 
 absolute pressure limited to 5.000000e+10 in 421168 cells on zone 1386 

 turbulent viscosity limited to viscosity ratio of 1.000000e+05 in 415453 cells 
   461  5.2481e+09  1.9227e-02  5.1642e-02  3.7024e-02  3.8487e-02  9.9769e-01  4.9740e-01  0:01:31   39
 temperature limited to 5.000000e+03 in 122 cells on zone 1386 in domain 1
  temperature limited to 5.000000e+03 on 4 faces

 absolute pressure limited to 5.000000e+10 in 421168 cells on zone 1386 

 turbulent viscosity limited to viscosity ratio of 1.000000e+05 in 415831 cells 
   462  4.9968e+09  1.9155e-02  5.1254e-02  4.0736e-02  3.6653e-02  9.9341e-01  4.9452e-01  0:01:29   38
 temperature limited to 5.000000e+03 in 343 cells on zone 1386 in domain 1
  temperature limited to 5.000000e+03 on 5 faces

 absolute pressure limited to 5.000000e+10 in 421200 cells on zone 1386 

 turbulent viscosity limited to viscosity ratio of 1.000000e+05 in 415546 cells 

  iter  continuity  x-velocity  y-velocity  z-velocity      energy           k       omega     time/iter
   463  5.8226e+09  1.7681e-02  4.7534e-02  3.8415e-02  3.4890e-02  9.8109e-01  4.8926e-01  0:01:26   37
 temperature limited to 5.000000e+03 in 7 cells on zone 1386 in domain 1
 
 absolute pressure limited to 5.000000e+10 in 421182 cells on zone 1386 

 turbulent viscosity limited to viscosity ratio of 1.000000e+05 in 415231 cells 
   464  5.9474e+09  1.7823e-02  4.7470e-02  3.6451e-02  3.6504e-02  9.9589e-01  4.9492e-01  0:01:24   36
 temperature limited to 5.000000e+03 in 1 cells on zone 1386 in domain 1
 
 absolute pressure limited to 5.000000e+10 in 421165 cells on zone 1386 

 turbulent viscosity limited to viscosity ratio of 1.000000e+05 in 415628 cells 
   465  5.5751e+09  1.8486e-02  4.9634e-02  3.5007e-02  3.6154e-02  9.9285e-01  4.9474e-01  0:01:21   35

 absolute pressure limited to 5.000000e+10 in 421168 cells on zone 1386 

 turbulent viscosity limited to viscosity ratio of 1.000000e+05 in 415557 cells 
   466  6.1060e+09  1.8694e-02  5.0296e-02  3.3169e-02  3.5446e-02  9.9843e-01  4.9807e-01  0:01:19   34

 absolute pressure limited to 5.000000e+10 in 421175 cells on zone 1386 

 turbulent viscosity limited to viscosity ratio of 1.000000e+05 in 415481 cells 
   467  6.7499e+09  1.8365e-02  4.9529e-02  3.1645e-02  3.6283e-02  9.9869e-01  4.9841e-01  0:01:17   33

 absolute pressure limited to 5.000000e+10 in 421177 cells on zone 1386 

 turbulent viscosity limited to viscosity ratio of 1.000000e+05 in 415634 cells 
   468  6.3247e+09  1.8170e-02  4.9111e-02  3.6155e-02  3.6153e-02  9.9535e-01  4.9688e-01  0:01:14   32

 absolute pressure limited to 5.000000e+10 in 421175 cells on zone 1386 

 turbulent viscosity limited to viscosity ratio of 1.000000e+05 in 415823 cells 
   469  7.5302e+09  1.7846e-02  4.8205e-02  3.8965e-02  3.6462e-02  9.9436e-01  4.9573e-01  0:01:12   31

 absolute pressure limited to 5.000000e+10 in 421188 cells on zone 1386 

 turbulent viscosity limited to viscosity ratio of 1.000000e+05 in 415274 cells 
   470  8.2543e+09  1.7966e-02  4.8813e-02  3.3659e-02  3.2009e-02  9.9883e-01  4.9890e-01  0:01:10   30

 absolute pressure limited to 5.000000e+10 in 421170 cells on zone 1386 

 turbulent viscosity limited to viscosity ratio of 1.000000e+05 in 415589 cells 
   471  7.7819e+09  1.6989e-02  4.6504e-02  3.4120e-02  3.2423e-02  9.9275e-01  4.9722e-01  0:01:07   29

 absolute pressure limited to 5.000000e+10 in 421181 cells on zone 1386 

 turbulent viscosity limited to viscosity ratio of 1.000000e+05 in 415699 cells 
   472  9.2048e+09  1.6409e-02  4.5409e-02  3.1122e-02  3.0778e-02  9.7844e-01  4.9326e-01  0:01:05   28

 absolute pressure limited to 5.000000e+10 in 421164 cells on zone 1386 

 turbulent viscosity limited to viscosity ratio of 1.000000e+05 in 415563 cells 
   473  8.0959e+09  1.5536e-02  4.1291e-02  3.5245e-02  3.3348e-02  9.9559e-01  4.9496e-01  0:01:03   27

 absolute pressure limited to 5.000000e+10 in 421176 cells on zone 1386 

 turbulent viscosity limited to viscosity ratio of 1.000000e+05 in 415687 cells 

  iter  continuity  x-velocity  y-velocity  z-velocity      energy           k       omega     time/iter
   474  7.8909e+09  1.4976e-02  4.0330e-02  3.8256e-02  3.1541e-02  9.8482e-01  4.8898e-01  0:01:00   26

 absolute pressure limited to 5.000000e+10 in 421168 cells on zone 1386 

 turbulent viscosity limited to viscosity ratio of 1.000000e+05 in 415802 cells 
   475  9.0471e+09  1.5359e-02  4.1746e-02  3.3745e-02  3.1617e-02  9.8843e-01  4.8300e-01  0:00:58   25

 absolute pressure limited to 5.000000e+10 in 421157 cells on zone 1386 

 turbulent viscosity limited to viscosity ratio of 1.000000e+05 in 415694 cells 
   476  8.9436e+09  1.5120e-02  4.1229e-02  3.4502e-02  3.2712e-02  9.8778e-01  4.8281e-01  0:00:56   24

 absolute pressure limited to 5.000000e+10 in 421180 cells on zone 1386 

 turbulent viscosity limited to viscosity ratio of 1.000000e+05 in 415572 cells 
   477  9.2797e+09  1.6150e-02  4.3817e-02  2.9685e-02  3.3010e-02  9.9252e-01  4.8848e-01  0:00:53   23

 absolute pressure limited to 5.000000e+10 in 421179 cells on zone 1386 

 turbulent viscosity limited to viscosity ratio of 1.000000e+05 in 415562 cells 
   478  8.8565e+09  1.8093e-02  4.9294e-02  2.4905e-02  3.1398e-02  9.8990e-01  4.8852e-01  0:00:51   22

 absolute pressure limited to 5.000000e+10 in 421145 cells on zone 1386 

 turbulent viscosity limited to viscosity ratio of 1.000000e+05 in 415479 cells 
   479  8.5602e+09  1.7270e-02  4.7091e-02  2.6315e-02  3.1999e-02  9.9410e-01  4.9321e-01  0:00:49   21

 absolute pressure limited to 5.000000e+10 in 421166 cells on zone 1386 

 turbulent viscosity limited to viscosity ratio of 1.000000e+05 in 415490 cells 
   480  9.1880e+09  1.6138e-02  4.3676e-02  3.0869e-02  3.4704e-02  9.9786e-01  4.9813e-01  0:00:47   20

 absolute pressure limited to 5.000000e+10 in 421176 cells on zone 1386 

 turbulent viscosity limited to viscosity ratio of 1.000000e+05 in 415788 cells 
   481  9.7120e+09  1.6544e-02  4.5451e-02  3.4016e-02  3.1142e-02  9.9651e-01  4.9688e-01  0:00:45   19

 absolute pressure limited to 5.000000e+10 in 421162 cells on zone 1386 

 turbulent viscosity limited to viscosity ratio of 1.000000e+05 in 415773 cells 
   482  1.0005e+10  1.7249e-02  4.6889e-02  3.3478e-02  2.9342e-02  9.8879e-01  4.9296e-01  0:00:42   18

 absolute pressure limited to 5.000000e+10 in 421172 cells on zone 1386 

 turbulent viscosity limited to viscosity ratio of 1.000000e+05 in 415764 cells 
   483  1.0577e+10  1.6265e-02  4.4373e-02  3.0576e-02  2.9569e-02  9.8653e-01  4.8860e-01  0:00:40   17

 absolute pressure limited to 5.000000e+10 in 421185 cells on zone 1386 

 turbulent viscosity limited to viscosity ratio of 1.000000e+05 in 415935 cells 
   484  1.0519e+10  1.6325e-02  4.4577e-02  2.8553e-02  2.6412e-02  9.8868e-01  4.9218e-01  0:00:37   16

 absolute pressure limited to 5.000000e+10 in 421166 cells on zone 1386 

 turbulent viscosity limited to viscosity ratio of 1.000000e+05 in 415677 cells 

  iter  continuity  x-velocity  y-velocity  z-velocity      energy           k       omega     time/iter
   485  9.5249e+09  1.6049e-02  4.3590e-02  2.3511e-02  2.9149e-02  9.8757e-01  4.9091e-01  0:00:35   15

 absolute pressure limited to 5.000000e+10 in 421167 cells on zone 1386 

 turbulent viscosity limited to viscosity ratio of 1.000000e+05 in 415489 cells 
   486  9.6524e+09  1.6512e-02  4.5659e-02  2.5026e-02  3.1095e-02  9.7075e-01  4.7672e-01  0:00:33   14

 absolute pressure limited to 5.000000e+10 in 421181 cells on zone 1386 

 turbulent viscosity limited to viscosity ratio of 1.000000e+05 in 415623 cells 
   487  8.5513e+09  1.5916e-02  4.3996e-02  2.4707e-02  2.9081e-02  9.7806e-01  4.7572e-01  0:00:30   13

 absolute pressure limited to 5.000000e+10 in 421156 cells on zone 1386 

 turbulent viscosity limited to viscosity ratio of 1.000000e+05 in 414511 cells 
   488  7.8543e+09  1.7877e-02  4.8570e-02  3.4397e-02  3.3888e-02  9.9724e-01  4.9227e-01  0:00:28   12

 absolute pressure limited to 5.000000e+10 in 421147 cells on zone 1386 

 turbulent viscosity limited to viscosity ratio of 1.000000e+05 in 414901 cells 
   489  9.2725e+09  1.8973e-02  5.1536e-02  3.9372e-02  3.3953e-02  9.9712e-01  4.8600e-01  0:00:26   11

 absolute pressure limited to 5.000000e+10 in 421165 cells on zone 1386 

 turbulent viscosity limited to viscosity ratio of 1.000000e+05 in 415300 cells 
   490  9.3593e+09  1.8304e-02  5.0326e-02  3.4328e-02  3.0513e-02  9.9281e-01  4.8933e-01  0:00:23   10

 absolute pressure limited to 5.000000e+10 in 421160 cells on zone 1386 

 turbulent viscosity limited to viscosity ratio of 1.000000e+05 in 415123 cells 
   491  8.9015e+09  1.8242e-02  5.0597e-02  3.3774e-02  3.3237e-02  9.9329e-01  4.9027e-01  0:00:21    9

 absolute pressure limited to 5.000000e+10 in 421147 cells on zone 1386 

 turbulent viscosity limited to viscosity ratio of 1.000000e+05 in 415274 cells 
   492  8.1553e+09  1.8981e-02  5.1464e-02  2.9721e-02  3.1270e-02  9.9019e-01  4.9036e-01  0:00:19    8

 absolute pressure limited to 5.000000e+10 in 421157 cells on zone 1386 

 turbulent viscosity limited to viscosity ratio of 1.000000e+05 in 415408 cells 
   493  6.8798e+09  1.7553e-02  4.7582e-02  2.8886e-02  3.2309e-02  9.9672e-01  4.9333e-01  0:00:16    7

 absolute pressure limited to 5.000000e+10 in 421162 cells on zone 1386 

 turbulent viscosity limited to viscosity ratio of 1.000000e+05 in 415258 cells 
   494  7.6429e+09  1.8843e-02  4.9784e-02  3.3079e-02  3.2992e-02  1.0014e+00  4.9282e-01  0:00:14    6

 absolute pressure limited to 5.000000e+10 in 421169 cells on zone 1386 

 turbulent viscosity limited to viscosity ratio of 1.000000e+05 in 415447 cells 
   495  7.8486e+09  1.9699e-02  5.2976e-02  3.3618e-02  3.0193e-02  9.9988e-01  4.9918e-01  0:00:12    5

 absolute pressure limited to 5.000000e+10 in 421160 cells on zone 1386 

 turbulent viscosity limited to viscosity ratio of 1.000000e+05 in 415447 cells 

  iter  continuity  x-velocity  y-velocity  z-velocity      energy           k       omega     time/iter
   496  6.9925e+09  1.8255e-02  4.9780e-02  3.0874e-02  3.0969e-02  9.9866e-01  4.9828e-01  0:00:09    4

 absolute pressure limited to 5.000000e+10 in 421168 cells on zone 1386 

 turbulent viscosity limited to viscosity ratio of 1.000000e+05 in 415229 cells 
   497  7.2829e+09  1.7336e-02  4.7191e-02  2.9899e-02  3.3347e-02  9.9665e-01  4.9610e-01  0:00:07    3

 absolute pressure limited to 5.000000e+10 in 421157 cells on zone 1386 

 turbulent viscosity limited to viscosity ratio of 1.000000e+05 in 415290 cells 
   498  8.1141e+09  1.7982e-02  4.8786e-02  2.7215e-02  2.9868e-02  9.8743e-01  4.9162e-01  0:00:05    2

 absolute pressure limited to 5.000000e+10 in 421164 cells on zone 1386 

 turbulent viscosity limited to viscosity ratio of 1.000000e+05 in 415304 cells 
   499  6.3074e+09  1.7039e-02  4.6113e-02  2.6037e-02  3.4807e-02  9.8912e-01  4.9214e-01  0:00:02    1

 absolute pressure limited to 5.000000e+10 in 421165 cells on zone 1386 

 turbulent viscosity limited to viscosity ratio of 1.000000e+05 in 415223 cells 
   500  6.5754e+09  1.8619e-02  4.9651e-02  2.7939e-02  3.4492e-02  9.8969e-01  4.8811e-01  0:00:00    0

> Halting due to end of file on input.
Auto-Transcript Stop Time:  02:41:18, 07 Jan 2025 
Total Transcript Time: 21 Minute 4 Second.

Automatic transcript closed.
